*SPEF "ieee 1481-1999"
*DESIGN "merge_memory"
*DATE "11:11:11 Fri 11 11, 1111"
*VENDOR "OpenRCX"
*PROGRAM "Parallel Extraction"
*VERSION "1.0"
*DESIGN_FLOW "NAME_SCOPE LOCAL" "PIN_CAP NONE"
*DIVIDER /
*DELIMITER :
*BUS_DELIMITER []
*T_UNIT 1 NS
*C_UNIT 1 PF
*R_UNIT 1 OHM
*L_UNIT 1 HENRY

*NAME_MAP
*1 addr[0]
*2 addr[1]
*3 addr[2]
*4 addr[3]
*5 addr[4]
*6 addr[5]
*7 addr[6]
*8 addr[7]
*9 addr[8]
*10 addr[9]
*11 addr_mem0[0]
*12 addr_mem0[1]
*13 addr_mem0[2]
*14 addr_mem0[3]
*15 addr_mem0[4]
*16 addr_mem0[5]
*17 addr_mem0[6]
*18 addr_mem0[7]
*19 addr_mem0[8]
*20 addr_mem1[0]
*21 addr_mem1[1]
*22 addr_mem1[2]
*23 addr_mem1[3]
*24 addr_mem1[4]
*25 addr_mem1[5]
*26 addr_mem1[6]
*27 addr_mem1[7]
*28 addr_mem1[8]
*29 csb
*30 csb_mem0
*31 csb_mem1
*32 dout[0]
*33 dout[10]
*34 dout[11]
*35 dout[12]
*36 dout[13]
*37 dout[14]
*38 dout[15]
*39 dout[16]
*40 dout[17]
*41 dout[18]
*42 dout[19]
*43 dout[1]
*44 dout[20]
*45 dout[21]
*46 dout[22]
*47 dout[23]
*48 dout[24]
*49 dout[25]
*50 dout[26]
*51 dout[27]
*52 dout[28]
*53 dout[29]
*54 dout[2]
*55 dout[30]
*56 dout[31]
*57 dout[3]
*58 dout[4]
*59 dout[5]
*60 dout[6]
*61 dout[7]
*62 dout[8]
*63 dout[9]
*64 dout_mem0[0]
*65 dout_mem0[10]
*66 dout_mem0[11]
*67 dout_mem0[12]
*68 dout_mem0[13]
*69 dout_mem0[14]
*70 dout_mem0[15]
*71 dout_mem0[16]
*72 dout_mem0[17]
*73 dout_mem0[18]
*74 dout_mem0[19]
*75 dout_mem0[1]
*76 dout_mem0[20]
*77 dout_mem0[21]
*78 dout_mem0[22]
*79 dout_mem0[23]
*80 dout_mem0[24]
*81 dout_mem0[25]
*82 dout_mem0[26]
*83 dout_mem0[27]
*84 dout_mem0[28]
*85 dout_mem0[29]
*86 dout_mem0[2]
*87 dout_mem0[30]
*88 dout_mem0[31]
*89 dout_mem0[3]
*90 dout_mem0[4]
*91 dout_mem0[5]
*92 dout_mem0[6]
*93 dout_mem0[7]
*94 dout_mem0[8]
*95 dout_mem0[9]
*96 dout_mem1[0]
*97 dout_mem1[10]
*98 dout_mem1[11]
*99 dout_mem1[12]
*100 dout_mem1[13]
*101 dout_mem1[14]
*102 dout_mem1[15]
*103 dout_mem1[16]
*104 dout_mem1[17]
*105 dout_mem1[18]
*106 dout_mem1[19]
*107 dout_mem1[1]
*108 dout_mem1[20]
*109 dout_mem1[21]
*110 dout_mem1[22]
*111 dout_mem1[23]
*112 dout_mem1[24]
*113 dout_mem1[25]
*114 dout_mem1[26]
*115 dout_mem1[27]
*116 dout_mem1[28]
*117 dout_mem1[29]
*118 dout_mem1[2]
*119 dout_mem1[30]
*120 dout_mem1[31]
*121 dout_mem1[3]
*122 dout_mem1[4]
*123 dout_mem1[5]
*124 dout_mem1[6]
*125 dout_mem1[7]
*126 dout_mem1[8]
*127 dout_mem1[9]
*130 _000_
*131 _001_
*132 _002_
*133 _003_
*134 _004_
*135 _005_
*136 _006_
*137 _007_
*138 _008_
*139 _009_
*140 _010_
*141 _011_
*142 _012_
*143 _013_
*144 _014_
*145 _015_
*146 _016_
*147 _017_
*148 _018_
*149 _019_
*150 _020_
*151 _021_
*152 _022_
*153 _023_
*154 _024_
*155 _025_
*156 _026_
*157 _027_
*158 _028_
*159 _029_
*160 _030_
*161 _031_
*162 _032_
*163 _033_
*164 _034_
*165 _035_
*166 _036_
*167 _037_
*168 _038_
*169 net1
*170 net10
*171 net100
*172 net101
*173 net102
*174 net103
*175 net104
*176 net105
*177 net106
*178 net107
*179 net108
*180 net109
*181 net11
*182 net110
*183 net111
*184 net112
*185 net113
*186 net114
*187 net115
*188 net116
*189 net117
*190 net118
*191 net119
*192 net12
*193 net120
*194 net121
*195 net122
*196 net123
*197 net124
*198 net125
*199 net126
*200 net127
*201 net13
*202 net14
*203 net15
*204 net16
*205 net17
*206 net18
*207 net19
*208 net2
*209 net20
*210 net21
*211 net22
*212 net23
*213 net24
*214 net25
*215 net26
*216 net27
*217 net28
*218 net29
*219 net3
*220 net30
*221 net31
*222 net32
*223 net33
*224 net34
*225 net35
*226 net36
*227 net37
*228 net38
*229 net39
*230 net4
*231 net40
*232 net41
*233 net42
*234 net43
*235 net44
*236 net45
*237 net46
*238 net47
*239 net48
*240 net49
*241 net5
*242 net50
*243 net51
*244 net52
*245 net53
*246 net54
*247 net55
*248 net56
*249 net57
*250 net58
*251 net59
*252 net6
*253 net60
*254 net61
*255 net62
*256 net63
*257 net64
*258 net65
*259 net66
*260 net67
*261 net68
*262 net69
*263 net7
*264 net70
*265 net71
*266 net72
*267 net73
*268 net74
*269 net75
*270 net76
*271 net77
*272 net78
*273 net79
*274 net8
*275 net80
*276 net81
*277 net82
*278 net83
*279 net84
*280 net85
*281 net86
*282 net87
*283 net88
*284 net89
*285 net9
*286 net90
*287 net91
*288 net92
*289 net93
*290 net94
*291 net95
*292 net96
*293 net97
*294 net98
*295 net99
*296 ANTENNA__039__A
*297 ANTENNA__041__A0
*298 ANTENNA__043__A0
*299 ANTENNA__045__A0
*300 ANTENNA__047__A0
*301 ANTENNA__049__A0
*302 ANTENNA__052__A0
*303 ANTENNA__054__A0
*304 ANTENNA__056__A0
*305 ANTENNA__058__A0
*306 ANTENNA__060__A0
*307 ANTENNA__063__A0
*308 ANTENNA__063__S
*309 ANTENNA__065__A0
*310 ANTENNA__065__S
*311 ANTENNA__067__A0
*312 ANTENNA__067__S
*313 ANTENNA__069__A0
*314 ANTENNA__069__S
*315 ANTENNA__071__A0
*316 ANTENNA__071__S
*317 ANTENNA__073__A
*318 ANTENNA__074__A0
*319 ANTENNA__076__A0
*320 ANTENNA__078__A0
*321 ANTENNA__080__A0
*322 ANTENNA__082__A0
*323 ANTENNA__084__A
*324 ANTENNA__085__A0
*325 ANTENNA__087__A0
*326 ANTENNA__089__A0
*327 ANTENNA__091__A0
*328 ANTENNA__093__A0
*329 ANTENNA__095__A
*330 ANTENNA__096__A0
*331 ANTENNA__098__A0
*332 ANTENNA__100__A0
*333 ANTENNA__102__A0
*334 ANTENNA__104__A0
*335 ANTENNA__106__A0
*336 ANTENNA__108__A0
*337 ANTENNA__110__A
*338 ANTENNA__111__A
*339 ANTENNA__112__A
*340 ANTENNA__113__A
*341 ANTENNA__114__A
*342 ANTENNA__115__A
*343 ANTENNA__116__A
*344 ANTENNA__117__A
*345 ANTENNA__118__A
*346 ANTENNA__119__A
*347 ANTENNA__120__A
*348 ANTENNA__121__A
*349 ANTENNA__122__A
*350 ANTENNA__123__A
*351 ANTENNA__124__A
*352 ANTENNA__125__A
*353 ANTENNA__126__A
*354 ANTENNA__127__A
*355 ANTENNA__128__A
*356 ANTENNA__129__A
*357 ANTENNA_input10_A
*358 ANTENNA_input11_A
*359 ANTENNA_input12_A
*360 ANTENNA_input13_A
*361 ANTENNA_input14_A
*362 ANTENNA_input15_A
*363 ANTENNA_input16_A
*364 ANTENNA_input17_A
*365 ANTENNA_input18_A
*366 ANTENNA_input19_A
*367 ANTENNA_input1_A
*368 ANTENNA_input20_A
*369 ANTENNA_input21_A
*370 ANTENNA_input22_A
*371 ANTENNA_input23_A
*372 ANTENNA_input24_A
*373 ANTENNA_input25_A
*374 ANTENNA_input26_A
*375 ANTENNA_input27_A
*376 ANTENNA_input28_A
*377 ANTENNA_input29_A
*378 ANTENNA_input2_A
*379 ANTENNA_input30_A
*380 ANTENNA_input31_A
*381 ANTENNA_input32_A
*382 ANTENNA_input33_A
*383 ANTENNA_input34_A
*384 ANTENNA_input35_A
*385 ANTENNA_input36_A
*386 ANTENNA_input37_A
*387 ANTENNA_input38_A
*388 ANTENNA_input39_A
*389 ANTENNA_input3_A
*390 ANTENNA_input40_A
*391 ANTENNA_input41_A
*392 ANTENNA_input42_A
*393 ANTENNA_input43_A
*394 ANTENNA_input44_A
*395 ANTENNA_input45_A
*396 ANTENNA_input46_A
*397 ANTENNA_input47_A
*398 ANTENNA_input48_A
*399 ANTENNA_input49_A
*400 ANTENNA_input4_A
*401 ANTENNA_input50_A
*402 ANTENNA_input51_A
*403 ANTENNA_input52_A
*404 ANTENNA_input53_A
*405 ANTENNA_input54_A
*406 ANTENNA_input55_A
*407 ANTENNA_input56_A
*408 ANTENNA_input57_A
*409 ANTENNA_input58_A
*410 ANTENNA_input59_A
*411 ANTENNA_input5_A
*412 ANTENNA_input60_A
*413 ANTENNA_input61_A
*414 ANTENNA_input62_A
*415 ANTENNA_input63_A
*416 ANTENNA_input64_A
*417 ANTENNA_input65_A
*418 ANTENNA_input66_A
*419 ANTENNA_input67_A
*420 ANTENNA_input68_A
*421 ANTENNA_input69_A
*422 ANTENNA_input6_A
*423 ANTENNA_input70_A
*424 ANTENNA_input71_A
*425 ANTENNA_input72_A
*426 ANTENNA_input73_A
*427 ANTENNA_input74_A
*428 ANTENNA_input75_A
*429 ANTENNA_input7_A
*430 ANTENNA_input8_A
*431 ANTENNA_input9_A
*432 ANTENNA_output100_A
*433 ANTENNA_output101_A
*434 ANTENNA_output102_A
*435 ANTENNA_output103_A
*436 ANTENNA_output104_A
*437 ANTENNA_output105_A
*438 ANTENNA_output106_A
*439 ANTENNA_output107_A
*440 ANTENNA_output108_A
*441 ANTENNA_output109_A
*442 ANTENNA_output110_A
*443 ANTENNA_output111_A
*444 ANTENNA_output112_A
*445 ANTENNA_output113_A
*446 ANTENNA_output114_A
*447 ANTENNA_output115_A
*448 ANTENNA_output116_A
*449 ANTENNA_output117_A
*450 ANTENNA_output118_A
*451 ANTENNA_output119_A
*452 ANTENNA_output120_A
*453 ANTENNA_output121_A
*454 ANTENNA_output122_A
*455 ANTENNA_output123_A
*456 ANTENNA_output124_A
*457 ANTENNA_output125_A
*458 ANTENNA_output126_A
*459 ANTENNA_output127_A
*460 ANTENNA_output76_A
*461 ANTENNA_output77_A
*462 ANTENNA_output78_A
*463 ANTENNA_output79_A
*464 ANTENNA_output80_A
*465 ANTENNA_output81_A
*466 ANTENNA_output82_A
*467 ANTENNA_output83_A
*468 ANTENNA_output84_A
*469 ANTENNA_output94_A
*470 ANTENNA_output96_A
*471 ANTENNA_output97_A
*472 ANTENNA_output98_A
*473 ANTENNA_output99_A
*474 FILLER_0_1002
*475 FILLER_0_1018
*476 FILLER_0_103
*477 FILLER_0_1031
*478 FILLER_0_1035
*479 FILLER_0_1046
*480 FILLER_0_1059
*481 FILLER_0_1063
*482 FILLER_0_1074
*483 FILLER_0_1078
*484 FILLER_0_1088
*485 FILLER_0_1102
*486 FILLER_0_1109
*487 FILLER_0_111
*488 FILLER_0_1116
*489 FILLER_0_1130
*490 FILLER_0_1143
*491 FILLER_0_1147
*492 FILLER_0_1158
*493 FILLER_0_117
*494 FILLER_0_1171
*495 FILLER_0_1175
*496 FILLER_0_1177
*497 FILLER_0_1189
*498 FILLER_0_1196
*499 FILLER_0_1214
*500 FILLER_0_1227
*501 FILLER_0_1231
*502 FILLER_0_1233
*503 FILLER_0_1245
*504 FILLER_0_1252
*505 FILLER_0_1261
*506 FILLER_0_127
*507 FILLER_0_1273
*508 FILLER_0_133
*509 FILLER_0_139
*510 FILLER_0_145
*511 FILLER_0_15
*512 FILLER_0_157
*513 FILLER_0_161
*514 FILLER_0_164
*515 FILLER_0_173
*516 FILLER_0_179
*517 FILLER_0_187
*518 FILLER_0_195
*519 FILLER_0_197
*520 FILLER_0_202
*521 FILLER_0_206
*522 FILLER_0_209
*523 FILLER_0_217
*524 FILLER_0_22
*525 FILLER_0_223
*526 FILLER_0_225
*527 FILLER_0_232
*528 FILLER_0_236
*529 FILLER_0_239
*530 FILLER_0_247
*531 FILLER_0_251
*532 FILLER_0_253
*533 FILLER_0_257
*534 FILLER_0_262
*535 FILLER_0_268
*536 FILLER_0_276
*537 FILLER_0_281
*538 FILLER_0_284
*539 FILLER_0_29
*540 FILLER_0_292
*541 FILLER_0_3
*542 FILLER_0_300
*543 FILLER_0_304
*544 FILLER_0_313
*545 FILLER_0_317
*546 FILLER_0_322
*547 FILLER_0_332
*548 FILLER_0_341
*549 FILLER_0_347
*550 FILLER_0_352
*551 FILLER_0_360
*552 FILLER_0_369
*553 FILLER_0_37
*554 FILLER_0_377
*555 FILLER_0_382
*556 FILLER_0_388
*557 FILLER_0_397
*558 FILLER_0_401
*559 FILLER_0_404
*560 FILLER_0_412
*561 FILLER_0_421
*562 FILLER_0_427
*563 FILLER_0_43
*564 FILLER_0_431
*565 FILLER_0_434
*566 FILLER_0_442
*567 FILLER_0_449
*568 FILLER_0_457
*569 FILLER_0_461
*570 FILLER_0_464
*571 FILLER_0_47
*572 FILLER_0_472
*573 FILLER_0_479
*574 FILLER_0_487
*575 FILLER_0_495
*576 FILLER_0_500
*577 FILLER_0_509
*578 FILLER_0_517
*579 FILLER_0_52
*580 FILLER_0_525
*581 FILLER_0_528
*582 FILLER_0_537
*583 FILLER_0_547
*584 FILLER_0_553
*585 FILLER_0_556
*586 FILLER_0_565
*587 FILLER_0_577
*588 FILLER_0_581
*589 FILLER_0_584
*590 FILLER_0_59
*591 FILLER_0_593
*592 FILLER_0_599
*593 FILLER_0_607
*594 FILLER_0_615
*595 FILLER_0_617
*596 FILLER_0_622
*597 FILLER_0_632
*598 FILLER_0_640
*599 FILLER_0_648
*600 FILLER_0_656
*601 FILLER_0_662
*602 FILLER_0_667
*603 FILLER_0_67
*604 FILLER_0_671
*605 FILLER_0_677
*606 FILLER_0_685
*607 FILLER_0_693
*608 FILLER_0_699
*609 FILLER_0_705
*610 FILLER_0_713
*611 FILLER_0_721
*612 FILLER_0_727
*613 FILLER_0_73
*614 FILLER_0_733
*615 FILLER_0_737
*616 FILLER_0_742
*617 FILLER_0_750
*618 FILLER_0_761
*619 FILLER_0_769
*620 FILLER_0_777
*621 FILLER_0_783
*622 FILLER_0_789
*623 FILLER_0_796
*624 FILLER_0_803
*625 FILLER_0_81
*626 FILLER_0_811
*627 FILLER_0_816
*628 FILLER_0_823
*629 FILLER_0_836
*630 FILLER_0_850
*631 FILLER_0_863
*632 FILLER_0_867
*633 FILLER_0_878
*634 FILLER_0_89
*635 FILLER_0_891
*636 FILLER_0_895
*637 FILLER_0_906
*638 FILLER_0_910
*639 FILLER_0_920
*640 FILLER_0_928
*641 FILLER_0_943
*642 FILLER_0_951
*643 FILLER_0_962
*644 FILLER_0_966
*645 FILLER_0_97
*646 FILLER_0_976
*647 FILLER_0_981
*648 FILLER_0_985
*649 FILLER_0_995
*650 FILLER_10_1005
*651 FILLER_10_1017
*652 FILLER_10_1029
*653 FILLER_10_1035
*654 FILLER_10_1037
*655 FILLER_10_1049
*656 FILLER_10_1061
*657 FILLER_10_1073
*658 FILLER_10_1085
*659 FILLER_10_109
*660 FILLER_10_1091
*661 FILLER_10_1093
*662 FILLER_10_1105
*663 FILLER_10_1117
*664 FILLER_10_1129
*665 FILLER_10_1141
*666 FILLER_10_1147
*667 FILLER_10_1149
*668 FILLER_10_1161
*669 FILLER_10_1173
*670 FILLER_10_1185
*671 FILLER_10_1197
*672 FILLER_10_1203
*673 FILLER_10_1205
*674 FILLER_10_121
*675 FILLER_10_1217
*676 FILLER_10_1229
*677 FILLER_10_1241
*678 FILLER_10_1253
*679 FILLER_10_1259
*680 FILLER_10_1261
*681 FILLER_10_1265
*682 FILLER_10_1273
*683 FILLER_10_133
*684 FILLER_10_139
*685 FILLER_10_141
*686 FILLER_10_15
*687 FILLER_10_153
*688 FILLER_10_165
*689 FILLER_10_177
*690 FILLER_10_189
*691 FILLER_10_195
*692 FILLER_10_197
*693 FILLER_10_209
*694 FILLER_10_221
*695 FILLER_10_233
*696 FILLER_10_245
*697 FILLER_10_251
*698 FILLER_10_253
*699 FILLER_10_265
*700 FILLER_10_27
*701 FILLER_10_277
*702 FILLER_10_289
*703 FILLER_10_29
*704 FILLER_10_3
*705 FILLER_10_301
*706 FILLER_10_307
*707 FILLER_10_309
*708 FILLER_10_321
*709 FILLER_10_333
*710 FILLER_10_345
*711 FILLER_10_357
*712 FILLER_10_363
*713 FILLER_10_365
*714 FILLER_10_377
*715 FILLER_10_389
*716 FILLER_10_401
*717 FILLER_10_41
*718 FILLER_10_413
*719 FILLER_10_419
*720 FILLER_10_421
*721 FILLER_10_433
*722 FILLER_10_445
*723 FILLER_10_457
*724 FILLER_10_469
*725 FILLER_10_475
*726 FILLER_10_477
*727 FILLER_10_489
*728 FILLER_10_501
*729 FILLER_10_513
*730 FILLER_10_525
*731 FILLER_10_53
*732 FILLER_10_531
*733 FILLER_10_533
*734 FILLER_10_545
*735 FILLER_10_557
*736 FILLER_10_569
*737 FILLER_10_581
*738 FILLER_10_587
*739 FILLER_10_589
*740 FILLER_10_601
*741 FILLER_10_613
*742 FILLER_10_625
*743 FILLER_10_637
*744 FILLER_10_643
*745 FILLER_10_645
*746 FILLER_10_65
*747 FILLER_10_657
*748 FILLER_10_669
*749 FILLER_10_681
*750 FILLER_10_693
*751 FILLER_10_699
*752 FILLER_10_701
*753 FILLER_10_713
*754 FILLER_10_725
*755 FILLER_10_737
*756 FILLER_10_749
*757 FILLER_10_755
*758 FILLER_10_757
*759 FILLER_10_769
*760 FILLER_10_77
*761 FILLER_10_781
*762 FILLER_10_793
*763 FILLER_10_805
*764 FILLER_10_811
*765 FILLER_10_813
*766 FILLER_10_825
*767 FILLER_10_83
*768 FILLER_10_837
*769 FILLER_10_849
*770 FILLER_10_85
*771 FILLER_10_861
*772 FILLER_10_867
*773 FILLER_10_869
*774 FILLER_10_881
*775 FILLER_10_893
*776 FILLER_10_905
*777 FILLER_10_917
*778 FILLER_10_923
*779 FILLER_10_925
*780 FILLER_10_937
*781 FILLER_10_949
*782 FILLER_10_961
*783 FILLER_10_97
*784 FILLER_10_973
*785 FILLER_10_979
*786 FILLER_10_981
*787 FILLER_10_993
*788 FILLER_11_1004
*789 FILLER_11_1009
*790 FILLER_11_1021
*791 FILLER_11_1033
*792 FILLER_11_1045
*793 FILLER_11_105
*794 FILLER_11_1057
*795 FILLER_11_1063
*796 FILLER_11_1065
*797 FILLER_11_1077
*798 FILLER_11_1089
*799 FILLER_11_1101
*800 FILLER_11_111
*801 FILLER_11_1113
*802 FILLER_11_1119
*803 FILLER_11_1121
*804 FILLER_11_113
*805 FILLER_11_1133
*806 FILLER_11_1145
*807 FILLER_11_1157
*808 FILLER_11_1169
*809 FILLER_11_1175
*810 FILLER_11_1177
*811 FILLER_11_1189
*812 FILLER_11_1201
*813 FILLER_11_1213
*814 FILLER_11_1225
*815 FILLER_11_1231
*816 FILLER_11_1233
*817 FILLER_11_1245
*818 FILLER_11_125
*819 FILLER_11_1257
*820 FILLER_11_1269
*821 FILLER_11_137
*822 FILLER_11_149
*823 FILLER_11_15
*824 FILLER_11_161
*825 FILLER_11_167
*826 FILLER_11_169
*827 FILLER_11_181
*828 FILLER_11_193
*829 FILLER_11_205
*830 FILLER_11_217
*831 FILLER_11_223
*832 FILLER_11_225
*833 FILLER_11_237
*834 FILLER_11_249
*835 FILLER_11_261
*836 FILLER_11_27
*837 FILLER_11_273
*838 FILLER_11_279
*839 FILLER_11_281
*840 FILLER_11_293
*841 FILLER_11_3
*842 FILLER_11_305
*843 FILLER_11_317
*844 FILLER_11_329
*845 FILLER_11_335
*846 FILLER_11_337
*847 FILLER_11_349
*848 FILLER_11_361
*849 FILLER_11_373
*850 FILLER_11_385
*851 FILLER_11_39
*852 FILLER_11_391
*853 FILLER_11_393
*854 FILLER_11_405
*855 FILLER_11_417
*856 FILLER_11_429
*857 FILLER_11_441
*858 FILLER_11_447
*859 FILLER_11_449
*860 FILLER_11_461
*861 FILLER_11_473
*862 FILLER_11_485
*863 FILLER_11_497
*864 FILLER_11_503
*865 FILLER_11_505
*866 FILLER_11_51
*867 FILLER_11_517
*868 FILLER_11_529
*869 FILLER_11_541
*870 FILLER_11_55
*871 FILLER_11_553
*872 FILLER_11_559
*873 FILLER_11_561
*874 FILLER_11_57
*875 FILLER_11_573
*876 FILLER_11_585
*877 FILLER_11_597
*878 FILLER_11_609
*879 FILLER_11_615
*880 FILLER_11_617
*881 FILLER_11_629
*882 FILLER_11_641
*883 FILLER_11_653
*884 FILLER_11_665
*885 FILLER_11_671
*886 FILLER_11_673
*887 FILLER_11_685
*888 FILLER_11_69
*889 FILLER_11_697
*890 FILLER_11_709
*891 FILLER_11_721
*892 FILLER_11_727
*893 FILLER_11_729
*894 FILLER_11_741
*895 FILLER_11_753
*896 FILLER_11_765
*897 FILLER_11_777
*898 FILLER_11_783
*899 FILLER_11_785
*900 FILLER_11_797
*901 FILLER_11_809
*902 FILLER_11_81
*903 FILLER_11_821
*904 FILLER_11_833
*905 FILLER_11_839
*906 FILLER_11_841
*907 FILLER_11_853
*908 FILLER_11_865
*909 FILLER_11_877
*910 FILLER_11_889
*911 FILLER_11_895
*912 FILLER_11_897
*913 FILLER_11_909
*914 FILLER_11_921
*915 FILLER_11_93
*916 FILLER_11_933
*917 FILLER_11_945
*918 FILLER_11_951
*919 FILLER_11_953
*920 FILLER_11_961
*921 FILLER_11_968
*922 FILLER_11_980
*923 FILLER_11_992
*924 FILLER_12_1005
*925 FILLER_12_1017
*926 FILLER_12_1029
*927 FILLER_12_1035
*928 FILLER_12_1037
*929 FILLER_12_1049
*930 FILLER_12_1061
*931 FILLER_12_1073
*932 FILLER_12_1085
*933 FILLER_12_109
*934 FILLER_12_1091
*935 FILLER_12_1093
*936 FILLER_12_1105
*937 FILLER_12_1117
*938 FILLER_12_1129
*939 FILLER_12_1141
*940 FILLER_12_1147
*941 FILLER_12_1149
*942 FILLER_12_1161
*943 FILLER_12_1173
*944 FILLER_12_1185
*945 FILLER_12_1197
*946 FILLER_12_1203
*947 FILLER_12_1205
*948 FILLER_12_121
*949 FILLER_12_1217
*950 FILLER_12_1229
*951 FILLER_12_1241
*952 FILLER_12_1253
*953 FILLER_12_1259
*954 FILLER_12_1261
*955 FILLER_12_1265
*956 FILLER_12_1273
*957 FILLER_12_133
*958 FILLER_12_139
*959 FILLER_12_141
*960 FILLER_12_15
*961 FILLER_12_153
*962 FILLER_12_165
*963 FILLER_12_177
*964 FILLER_12_189
*965 FILLER_12_195
*966 FILLER_12_197
*967 FILLER_12_209
*968 FILLER_12_221
*969 FILLER_12_233
*970 FILLER_12_245
*971 FILLER_12_251
*972 FILLER_12_253
*973 FILLER_12_265
*974 FILLER_12_27
*975 FILLER_12_277
*976 FILLER_12_289
*977 FILLER_12_29
*978 FILLER_12_3
*979 FILLER_12_301
*980 FILLER_12_307
*981 FILLER_12_309
*982 FILLER_12_321
*983 FILLER_12_333
*984 FILLER_12_345
*985 FILLER_12_357
*986 FILLER_12_363
*987 FILLER_12_365
*988 FILLER_12_377
*989 FILLER_12_389
*990 FILLER_12_401
*991 FILLER_12_41
*992 FILLER_12_413
*993 FILLER_12_419
*994 FILLER_12_421
*995 FILLER_12_433
*996 FILLER_12_445
*997 FILLER_12_457
*998 FILLER_12_469
*999 FILLER_12_475
*1000 FILLER_12_477
*1001 FILLER_12_489
*1002 FILLER_12_501
*1003 FILLER_12_513
*1004 FILLER_12_525
*1005 FILLER_12_53
*1006 FILLER_12_531
*1007 FILLER_12_533
*1008 FILLER_12_545
*1009 FILLER_12_557
*1010 FILLER_12_569
*1011 FILLER_12_581
*1012 FILLER_12_587
*1013 FILLER_12_589
*1014 FILLER_12_601
*1015 FILLER_12_613
*1016 FILLER_12_625
*1017 FILLER_12_637
*1018 FILLER_12_643
*1019 FILLER_12_645
*1020 FILLER_12_65
*1021 FILLER_12_657
*1022 FILLER_12_669
*1023 FILLER_12_681
*1024 FILLER_12_693
*1025 FILLER_12_699
*1026 FILLER_12_701
*1027 FILLER_12_713
*1028 FILLER_12_725
*1029 FILLER_12_737
*1030 FILLER_12_749
*1031 FILLER_12_755
*1032 FILLER_12_757
*1033 FILLER_12_769
*1034 FILLER_12_77
*1035 FILLER_12_781
*1036 FILLER_12_793
*1037 FILLER_12_805
*1038 FILLER_12_811
*1039 FILLER_12_813
*1040 FILLER_12_825
*1041 FILLER_12_83
*1042 FILLER_12_837
*1043 FILLER_12_849
*1044 FILLER_12_85
*1045 FILLER_12_861
*1046 FILLER_12_867
*1047 FILLER_12_869
*1048 FILLER_12_881
*1049 FILLER_12_893
*1050 FILLER_12_905
*1051 FILLER_12_917
*1052 FILLER_12_923
*1053 FILLER_12_925
*1054 FILLER_12_937
*1055 FILLER_12_941
*1056 FILLER_12_946
*1057 FILLER_12_958
*1058 FILLER_12_97
*1059 FILLER_12_970
*1060 FILLER_12_978
*1061 FILLER_12_981
*1062 FILLER_12_993
*1063 FILLER_13_1001
*1064 FILLER_13_1007
*1065 FILLER_13_1009
*1066 FILLER_13_1021
*1067 FILLER_13_1033
*1068 FILLER_13_1045
*1069 FILLER_13_105
*1070 FILLER_13_1057
*1071 FILLER_13_1063
*1072 FILLER_13_1065
*1073 FILLER_13_1077
*1074 FILLER_13_1089
*1075 FILLER_13_1101
*1076 FILLER_13_111
*1077 FILLER_13_1113
*1078 FILLER_13_1119
*1079 FILLER_13_1121
*1080 FILLER_13_113
*1081 FILLER_13_1133
*1082 FILLER_13_1145
*1083 FILLER_13_1157
*1084 FILLER_13_1169
*1085 FILLER_13_1175
*1086 FILLER_13_1177
*1087 FILLER_13_1189
*1088 FILLER_13_1201
*1089 FILLER_13_1213
*1090 FILLER_13_1225
*1091 FILLER_13_1231
*1092 FILLER_13_1233
*1093 FILLER_13_1245
*1094 FILLER_13_125
*1095 FILLER_13_1257
*1096 FILLER_13_1265
*1097 FILLER_13_1273
*1098 FILLER_13_137
*1099 FILLER_13_149
*1100 FILLER_13_15
*1101 FILLER_13_161
*1102 FILLER_13_167
*1103 FILLER_13_169
*1104 FILLER_13_181
*1105 FILLER_13_193
*1106 FILLER_13_205
*1107 FILLER_13_217
*1108 FILLER_13_223
*1109 FILLER_13_225
*1110 FILLER_13_237
*1111 FILLER_13_249
*1112 FILLER_13_261
*1113 FILLER_13_27
*1114 FILLER_13_273
*1115 FILLER_13_279
*1116 FILLER_13_281
*1117 FILLER_13_293
*1118 FILLER_13_3
*1119 FILLER_13_305
*1120 FILLER_13_317
*1121 FILLER_13_329
*1122 FILLER_13_335
*1123 FILLER_13_337
*1124 FILLER_13_349
*1125 FILLER_13_361
*1126 FILLER_13_373
*1127 FILLER_13_385
*1128 FILLER_13_39
*1129 FILLER_13_391
*1130 FILLER_13_393
*1131 FILLER_13_405
*1132 FILLER_13_417
*1133 FILLER_13_429
*1134 FILLER_13_441
*1135 FILLER_13_447
*1136 FILLER_13_449
*1137 FILLER_13_461
*1138 FILLER_13_473
*1139 FILLER_13_485
*1140 FILLER_13_497
*1141 FILLER_13_503
*1142 FILLER_13_505
*1143 FILLER_13_51
*1144 FILLER_13_517
*1145 FILLER_13_529
*1146 FILLER_13_541
*1147 FILLER_13_55
*1148 FILLER_13_553
*1149 FILLER_13_559
*1150 FILLER_13_561
*1151 FILLER_13_57
*1152 FILLER_13_573
*1153 FILLER_13_585
*1154 FILLER_13_597
*1155 FILLER_13_609
*1156 FILLER_13_615
*1157 FILLER_13_617
*1158 FILLER_13_629
*1159 FILLER_13_641
*1160 FILLER_13_653
*1161 FILLER_13_665
*1162 FILLER_13_671
*1163 FILLER_13_673
*1164 FILLER_13_685
*1165 FILLER_13_69
*1166 FILLER_13_697
*1167 FILLER_13_709
*1168 FILLER_13_721
*1169 FILLER_13_727
*1170 FILLER_13_729
*1171 FILLER_13_741
*1172 FILLER_13_753
*1173 FILLER_13_765
*1174 FILLER_13_777
*1175 FILLER_13_783
*1176 FILLER_13_785
*1177 FILLER_13_797
*1178 FILLER_13_809
*1179 FILLER_13_81
*1180 FILLER_13_821
*1181 FILLER_13_833
*1182 FILLER_13_839
*1183 FILLER_13_841
*1184 FILLER_13_853
*1185 FILLER_13_865
*1186 FILLER_13_877
*1187 FILLER_13_889
*1188 FILLER_13_895
*1189 FILLER_13_897
*1190 FILLER_13_909
*1191 FILLER_13_921
*1192 FILLER_13_93
*1193 FILLER_13_933
*1194 FILLER_13_945
*1195 FILLER_13_951
*1196 FILLER_13_953
*1197 FILLER_13_965
*1198 FILLER_13_977
*1199 FILLER_13_989
*1200 FILLER_14_1005
*1201 FILLER_14_1017
*1202 FILLER_14_1029
*1203 FILLER_14_1035
*1204 FILLER_14_1037
*1205 FILLER_14_1049
*1206 FILLER_14_1061
*1207 FILLER_14_1073
*1208 FILLER_14_1085
*1209 FILLER_14_109
*1210 FILLER_14_1091
*1211 FILLER_14_1093
*1212 FILLER_14_1105
*1213 FILLER_14_1117
*1214 FILLER_14_1129
*1215 FILLER_14_1141
*1216 FILLER_14_1147
*1217 FILLER_14_1149
*1218 FILLER_14_1161
*1219 FILLER_14_1173
*1220 FILLER_14_1185
*1221 FILLER_14_1197
*1222 FILLER_14_1203
*1223 FILLER_14_1205
*1224 FILLER_14_121
*1225 FILLER_14_1217
*1226 FILLER_14_1229
*1227 FILLER_14_1241
*1228 FILLER_14_1253
*1229 FILLER_14_1259
*1230 FILLER_14_1261
*1231 FILLER_14_1273
*1232 FILLER_14_133
*1233 FILLER_14_139
*1234 FILLER_14_141
*1235 FILLER_14_15
*1236 FILLER_14_153
*1237 FILLER_14_165
*1238 FILLER_14_177
*1239 FILLER_14_189
*1240 FILLER_14_195
*1241 FILLER_14_197
*1242 FILLER_14_209
*1243 FILLER_14_221
*1244 FILLER_14_233
*1245 FILLER_14_245
*1246 FILLER_14_251
*1247 FILLER_14_253
*1248 FILLER_14_265
*1249 FILLER_14_27
*1250 FILLER_14_277
*1251 FILLER_14_289
*1252 FILLER_14_29
*1253 FILLER_14_3
*1254 FILLER_14_301
*1255 FILLER_14_307
*1256 FILLER_14_309
*1257 FILLER_14_321
*1258 FILLER_14_333
*1259 FILLER_14_345
*1260 FILLER_14_357
*1261 FILLER_14_363
*1262 FILLER_14_365
*1263 FILLER_14_377
*1264 FILLER_14_389
*1265 FILLER_14_401
*1266 FILLER_14_41
*1267 FILLER_14_413
*1268 FILLER_14_419
*1269 FILLER_14_421
*1270 FILLER_14_433
*1271 FILLER_14_445
*1272 FILLER_14_457
*1273 FILLER_14_469
*1274 FILLER_14_475
*1275 FILLER_14_477
*1276 FILLER_14_489
*1277 FILLER_14_501
*1278 FILLER_14_513
*1279 FILLER_14_525
*1280 FILLER_14_53
*1281 FILLER_14_531
*1282 FILLER_14_533
*1283 FILLER_14_545
*1284 FILLER_14_557
*1285 FILLER_14_569
*1286 FILLER_14_581
*1287 FILLER_14_587
*1288 FILLER_14_589
*1289 FILLER_14_601
*1290 FILLER_14_613
*1291 FILLER_14_625
*1292 FILLER_14_637
*1293 FILLER_14_643
*1294 FILLER_14_645
*1295 FILLER_14_65
*1296 FILLER_14_657
*1297 FILLER_14_669
*1298 FILLER_14_681
*1299 FILLER_14_693
*1300 FILLER_14_699
*1301 FILLER_14_701
*1302 FILLER_14_713
*1303 FILLER_14_725
*1304 FILLER_14_737
*1305 FILLER_14_749
*1306 FILLER_14_755
*1307 FILLER_14_757
*1308 FILLER_14_769
*1309 FILLER_14_77
*1310 FILLER_14_781
*1311 FILLER_14_793
*1312 FILLER_14_805
*1313 FILLER_14_811
*1314 FILLER_14_813
*1315 FILLER_14_825
*1316 FILLER_14_83
*1317 FILLER_14_837
*1318 FILLER_14_849
*1319 FILLER_14_85
*1320 FILLER_14_861
*1321 FILLER_14_867
*1322 FILLER_14_869
*1323 FILLER_14_881
*1324 FILLER_14_893
*1325 FILLER_14_905
*1326 FILLER_14_917
*1327 FILLER_14_923
*1328 FILLER_14_925
*1329 FILLER_14_937
*1330 FILLER_14_949
*1331 FILLER_14_961
*1332 FILLER_14_97
*1333 FILLER_14_973
*1334 FILLER_14_979
*1335 FILLER_14_981
*1336 FILLER_14_993
*1337 FILLER_15_1001
*1338 FILLER_15_1007
*1339 FILLER_15_1009
*1340 FILLER_15_1021
*1341 FILLER_15_1033
*1342 FILLER_15_1045
*1343 FILLER_15_105
*1344 FILLER_15_1057
*1345 FILLER_15_1063
*1346 FILLER_15_1065
*1347 FILLER_15_1077
*1348 FILLER_15_1089
*1349 FILLER_15_1101
*1350 FILLER_15_111
*1351 FILLER_15_1113
*1352 FILLER_15_1119
*1353 FILLER_15_1121
*1354 FILLER_15_113
*1355 FILLER_15_1133
*1356 FILLER_15_1145
*1357 FILLER_15_1157
*1358 FILLER_15_1169
*1359 FILLER_15_1175
*1360 FILLER_15_1177
*1361 FILLER_15_1189
*1362 FILLER_15_1201
*1363 FILLER_15_1213
*1364 FILLER_15_1225
*1365 FILLER_15_1231
*1366 FILLER_15_1233
*1367 FILLER_15_1245
*1368 FILLER_15_125
*1369 FILLER_15_1257
*1370 FILLER_15_1265
*1371 FILLER_15_1273
*1372 FILLER_15_137
*1373 FILLER_15_149
*1374 FILLER_15_15
*1375 FILLER_15_161
*1376 FILLER_15_167
*1377 FILLER_15_169
*1378 FILLER_15_181
*1379 FILLER_15_193
*1380 FILLER_15_205
*1381 FILLER_15_217
*1382 FILLER_15_223
*1383 FILLER_15_225
*1384 FILLER_15_237
*1385 FILLER_15_249
*1386 FILLER_15_261
*1387 FILLER_15_27
*1388 FILLER_15_273
*1389 FILLER_15_279
*1390 FILLER_15_281
*1391 FILLER_15_293
*1392 FILLER_15_3
*1393 FILLER_15_305
*1394 FILLER_15_317
*1395 FILLER_15_329
*1396 FILLER_15_335
*1397 FILLER_15_337
*1398 FILLER_15_349
*1399 FILLER_15_361
*1400 FILLER_15_373
*1401 FILLER_15_385
*1402 FILLER_15_39
*1403 FILLER_15_391
*1404 FILLER_15_393
*1405 FILLER_15_405
*1406 FILLER_15_417
*1407 FILLER_15_429
*1408 FILLER_15_441
*1409 FILLER_15_447
*1410 FILLER_15_449
*1411 FILLER_15_461
*1412 FILLER_15_473
*1413 FILLER_15_485
*1414 FILLER_15_497
*1415 FILLER_15_503
*1416 FILLER_15_505
*1417 FILLER_15_51
*1418 FILLER_15_517
*1419 FILLER_15_529
*1420 FILLER_15_541
*1421 FILLER_15_55
*1422 FILLER_15_553
*1423 FILLER_15_559
*1424 FILLER_15_561
*1425 FILLER_15_57
*1426 FILLER_15_573
*1427 FILLER_15_585
*1428 FILLER_15_597
*1429 FILLER_15_609
*1430 FILLER_15_615
*1431 FILLER_15_617
*1432 FILLER_15_629
*1433 FILLER_15_641
*1434 FILLER_15_653
*1435 FILLER_15_665
*1436 FILLER_15_671
*1437 FILLER_15_673
*1438 FILLER_15_685
*1439 FILLER_15_69
*1440 FILLER_15_697
*1441 FILLER_15_709
*1442 FILLER_15_721
*1443 FILLER_15_727
*1444 FILLER_15_729
*1445 FILLER_15_741
*1446 FILLER_15_753
*1447 FILLER_15_765
*1448 FILLER_15_777
*1449 FILLER_15_783
*1450 FILLER_15_785
*1451 FILLER_15_797
*1452 FILLER_15_809
*1453 FILLER_15_81
*1454 FILLER_15_821
*1455 FILLER_15_833
*1456 FILLER_15_839
*1457 FILLER_15_841
*1458 FILLER_15_853
*1459 FILLER_15_865
*1460 FILLER_15_877
*1461 FILLER_15_889
*1462 FILLER_15_895
*1463 FILLER_15_897
*1464 FILLER_15_909
*1465 FILLER_15_921
*1466 FILLER_15_93
*1467 FILLER_15_933
*1468 FILLER_15_945
*1469 FILLER_15_951
*1470 FILLER_15_953
*1471 FILLER_15_965
*1472 FILLER_15_977
*1473 FILLER_15_989
*1474 FILLER_16_1005
*1475 FILLER_16_1017
*1476 FILLER_16_1029
*1477 FILLER_16_1035
*1478 FILLER_16_1037
*1479 FILLER_16_1049
*1480 FILLER_16_1061
*1481 FILLER_16_1073
*1482 FILLER_16_1085
*1483 FILLER_16_109
*1484 FILLER_16_1091
*1485 FILLER_16_1093
*1486 FILLER_16_1105
*1487 FILLER_16_1117
*1488 FILLER_16_1129
*1489 FILLER_16_1141
*1490 FILLER_16_1147
*1491 FILLER_16_1149
*1492 FILLER_16_1161
*1493 FILLER_16_1173
*1494 FILLER_16_1185
*1495 FILLER_16_1197
*1496 FILLER_16_1203
*1497 FILLER_16_1205
*1498 FILLER_16_121
*1499 FILLER_16_1217
*1500 FILLER_16_1229
*1501 FILLER_16_1241
*1502 FILLER_16_1253
*1503 FILLER_16_1259
*1504 FILLER_16_1261
*1505 FILLER_16_1265
*1506 FILLER_16_1273
*1507 FILLER_16_133
*1508 FILLER_16_139
*1509 FILLER_16_141
*1510 FILLER_16_15
*1511 FILLER_16_153
*1512 FILLER_16_165
*1513 FILLER_16_177
*1514 FILLER_16_189
*1515 FILLER_16_195
*1516 FILLER_16_197
*1517 FILLER_16_209
*1518 FILLER_16_221
*1519 FILLER_16_233
*1520 FILLER_16_245
*1521 FILLER_16_251
*1522 FILLER_16_253
*1523 FILLER_16_265
*1524 FILLER_16_27
*1525 FILLER_16_277
*1526 FILLER_16_289
*1527 FILLER_16_29
*1528 FILLER_16_3
*1529 FILLER_16_301
*1530 FILLER_16_307
*1531 FILLER_16_309
*1532 FILLER_16_321
*1533 FILLER_16_333
*1534 FILLER_16_345
*1535 FILLER_16_357
*1536 FILLER_16_363
*1537 FILLER_16_365
*1538 FILLER_16_377
*1539 FILLER_16_389
*1540 FILLER_16_401
*1541 FILLER_16_41
*1542 FILLER_16_413
*1543 FILLER_16_419
*1544 FILLER_16_421
*1545 FILLER_16_433
*1546 FILLER_16_445
*1547 FILLER_16_457
*1548 FILLER_16_469
*1549 FILLER_16_475
*1550 FILLER_16_477
*1551 FILLER_16_489
*1552 FILLER_16_501
*1553 FILLER_16_513
*1554 FILLER_16_525
*1555 FILLER_16_53
*1556 FILLER_16_531
*1557 FILLER_16_533
*1558 FILLER_16_545
*1559 FILLER_16_557
*1560 FILLER_16_569
*1561 FILLER_16_581
*1562 FILLER_16_587
*1563 FILLER_16_589
*1564 FILLER_16_601
*1565 FILLER_16_613
*1566 FILLER_16_625
*1567 FILLER_16_637
*1568 FILLER_16_643
*1569 FILLER_16_645
*1570 FILLER_16_65
*1571 FILLER_16_657
*1572 FILLER_16_669
*1573 FILLER_16_681
*1574 FILLER_16_693
*1575 FILLER_16_699
*1576 FILLER_16_701
*1577 FILLER_16_713
*1578 FILLER_16_725
*1579 FILLER_16_737
*1580 FILLER_16_749
*1581 FILLER_16_755
*1582 FILLER_16_757
*1583 FILLER_16_769
*1584 FILLER_16_77
*1585 FILLER_16_781
*1586 FILLER_16_793
*1587 FILLER_16_805
*1588 FILLER_16_811
*1589 FILLER_16_813