*SPEF "ieee 1481-1999"
*DESIGN "merge_memory"
*DATE "11:11:11 Fri 11 11, 1111"
*VENDOR "OpenRCX"
*PROGRAM "Parallel Extraction"
*VERSION "1.0"
*DESIGN_FLOW "NAME_SCOPE LOCAL" "PIN_CAP NONE"
*DIVIDER /
*DELIMITER :
*BUS_DELIMITER []
*T_UNIT 1 NS
*C_UNIT 1 PF
*R_UNIT 1 OHM
*L_UNIT 1 HENRY

*NAME_MAP
*1 addr[0]
*2 addr[1]
*3 addr[2]
*4 addr[3]
*5 addr[4]
*6 addr[5]
*7 addr[6]
*8 addr[7]
*9 addr[8]
*10 addr[9]
*11 addr_mem0[0]
*12 addr_mem0[1]
*13 addr_mem0[2]
*14 addr_mem0[3]
*15 addr_mem0[4]
*16 addr_mem0[5]
*17 addr_mem0[6]
*18 addr_mem0[7]
*19 addr_mem0[8]
*20 addr_mem1[0]
*21 addr_mem1[1]
*22 addr_mem1[2]
*23 addr_mem1[3]
*24 addr_mem1[4]
*25 addr_mem1[5]
*26 addr_mem1[6]
*27 addr_mem1[7]
*28 addr_mem1[8]
*29 csb
*30 csb_mem0
*31 csb_mem1
*32 dout[0]
*33 dout[10]
*34 dout[11]
*35 dout[12]
*36 dout[13]
*37 dout[14]
*38 dout[15]
*39 dout[16]
*40 dout[17]
*41 dout[18]
*42 dout[19]
*43 dout[1]
*44 dout[20]
*45 dout[21]
*46 dout[22]
*47 dout[23]
*48 dout[24]
*49 dout[25]
*50 dout[26]
*51 dout[27]
*52 dout[28]
*53 dout[29]
*54 dout[2]
*55 dout[30]
*56 dout[31]
*57 dout[3]
*58 dout[4]
*59 dout[5]
*60 dout[6]
*61 dout[7]
*62 dout[8]
*63 dout[9]
*64 dout_mem0[0]
*65 dout_mem0[10]
*66 dout_mem0[11]
*67 dout_mem0[12]
*68 dout_mem0[13]
*69 dout_mem0[14]
*70 dout_mem0[15]
*71 dout_mem0[16]
*72 dout_mem0[17]
*73 dout_mem0[18]
*74 dout_mem0[19]
*75 dout_mem0[1]
*76 dout_mem0[20]
*77 dout_mem0[21]
*78 dout_mem0[22]
*79 dout_mem0[23]
*80 dout_mem0[24]
*81 dout_mem0[25]
*82 dout_mem0[26]
*83 dout_mem0[27]
*84 dout_mem0[28]
*85 dout_mem0[29]
*86 dout_mem0[2]
*87 dout_mem0[30]
*88 dout_mem0[31]
*89 dout_mem0[3]
*90 dout_mem0[4]
*91 dout_mem0[5]
*92 dout_mem0[6]
*93 dout_mem0[7]
*94 dout_mem0[8]
*95 dout_mem0[9]
*96 dout_mem1[0]
*97 dout_mem1[10]
*98 dout_mem1[11]
*99 dout_mem1[12]
*100 dout_mem1[13]
*101 dout_mem1[14]
*102 dout_mem1[15]
*103 dout_mem1[16]
*104 dout_mem1[17]
*105 dout_mem1[18]
*106 dout_mem1[19]
*107 dout_mem1[1]
*108 dout_mem1[20]
*109 dout_mem1[21]
*110 dout_mem1[22]
*111 dout_mem1[23]
*112 dout_mem1[24]
*113 dout_mem1[25]
*114 dout_mem1[26]
*115 dout_mem1[27]
*116 dout_mem1[28]
*117 dout_mem1[29]
*118 dout_mem1[2]
*119 dout_mem1[30]
*120 dout_mem1[31]
*121 dout_mem1[3]
*122 dout_mem1[4]
*123 dout_mem1[5]
*124 dout_mem1[6]
*125 dout_mem1[7]
*126 dout_mem1[8]
*127 dout_mem1[9]
*130 _000_
*131 _001_
*132 _002_
*133 _003_
*134 _004_
*135 _005_
*136 _006_
*137 _007_
*138 _008_
*139 _009_
*140 _010_
*141 _011_
*142 _012_
*143 _013_
*144 _014_
*145 _015_
*146 _016_
*147 _017_
*148 _018_
*149 _019_
*150 _020_
*151 _021_
*152 _022_
*153 _023_
*154 _024_
*155 _025_
*156 _026_
*157 _027_
*158 _028_
*159 _029_
*160 _030_
*161 _031_
*162 _032_
*163 _033_
*164 _034_
*165 _035_
*166 _036_
*167 _037_
*168 _038_
*169 _039_
*170 _040_
*171 _041_
*172 _042_
*173 _043_
*174 _044_
*175 _045_
*176 _046_
*177 _047_
*178 _048_
*179 _049_
*180 _050_
*181 _051_
*182 _052_
*183 _053_
*184 _054_
*185 _055_
*186 _056_
*187 _057_
*188 _058_
*189 _059_
*190 _060_
*191 _061_
*192 _062_
*193 _063_
*194 net1
*195 net10
*196 net100
*197 net101
*198 net102
*199 net103
*200 net104
*201 net105
*202 net106
*203 net107
*204 net108
*205 net109
*206 net11
*207 net110
*208 net111
*209 net112
*210 net113
*211 net114
*212 net115
*213 net116
*214 net117
*215 net118
*216 net119
*217 net12
*218 net120
*219 net121
*220 net122
*221 net123
*222 net124
*223 net125
*224 net126
*225 net127
*226 net13
*227 net14
*228 net15
*229 net16
*230 net17
*231 net18
*232 net19
*233 net2
*234 net20
*235 net21
*236 net22
*237 net23
*238 net24
*239 net25
*240 net26
*241 net27
*242 net28
*243 net29
*244 net3
*245 net30
*246 net31
*247 net32
*248 net33
*249 net34
*250 net35
*251 net36
*252 net37
*253 net38
*254 net39
*255 net4
*256 net40
*257 net41
*258 net42
*259 net43
*260 net44
*261 net45
*262 net46
*263 net47
*264 net48
*265 net49
*266 net5
*267 net50
*268 net51
*269 net52
*270 net53
*271 net54
*272 net55
*273 net56
*274 net57
*275 net58
*276 net59
*277 net6
*278 net60
*279 net61
*280 net62
*281 net63
*282 net64
*283 net65
*284 net66
*285 net67
*286 net68
*287 net69
*288 net7
*289 net70
*290 net71
*291 net72
*292 net73
*293 net74
*294 net75
*295 net76
*296 net77
*297 net78
*298 net79
*299 net8
*300 net80
*301 net81
*302 net82
*303 net83
*304 net84
*305 net85
*306 net86
*307 net87
*308 net88
*309 net89
*310 net9
*311 net90
*312 net91
*313 net92
*314 net93
*315 net94
*316 net95
*317 net96
*318 net97
*319 net98
*320 net99
*321 ANTENNA_0
*322 ANTENNA_1
*323 ANTENNA_2
*324 ANTENNA_3
*325 ANTENNA_4
*326 ANTENNA_5
*327 ANTENNA_6
*328 ANTENNA_7
*329 FILLER_0_105
*330 FILLER_0_111
*331 FILLER_0_117
*332 FILLER_0_125
*333 FILLER_0_132
*334 FILLER_0_145
*335 FILLER_0_15
*336 FILLER_0_154
*337 FILLER_0_166
*338 FILLER_0_172
*339 FILLER_0_180
*340 FILLER_0_185
*341 FILLER_0_193
*342 FILLER_0_200
*343 FILLER_0_212
*344 FILLER_0_216
*345 FILLER_0_225
*346 FILLER_0_231
*347 FILLER_0_24
*348 FILLER_0_243
*349 FILLER_0_247
*350 FILLER_0_251
*351 FILLER_0_253
*352 FILLER_0_262
*353 FILLER_0_274
*354 FILLER_0_284
*355 FILLER_0_293
*356 FILLER_0_305
*357 FILLER_0_312
*358 FILLER_0_320
*359 FILLER_0_325
*360 FILLER_0_333
*361 FILLER_0_34
*362 FILLER_0_340
*363 FILLER_0_352
*364 FILLER_0_356
*365 FILLER_0_365
*366 FILLER_0_371
*367 FILLER_0_38
*368 FILLER_0_383
*369 FILLER_0_387
*370 FILLER_0_391
*371 FILLER_0_393
*372 FILLER_0_402
*373 FILLER_0_414
*374 FILLER_0_424
*375 FILLER_0_433
*376 FILLER_0_44
*377 FILLER_0_445
*378 FILLER_0_452
*379 FILLER_0_460
*380 FILLER_0_464
*381 FILLER_0_480
*382 FILLER_0_495
*383 FILLER_0_503
*384 FILLER_0_505
*385 FILLER_0_518
*386 FILLER_0_52
*387 FILLER_0_530
*388 FILLER_0_533
*389 FILLER_0_549
*390 FILLER_0_557
*391 FILLER_0_571
*392 FILLER_0_577
*393 FILLER_0_584
*394 FILLER_0_599
*395 FILLER_0_605
*396 FILLER_0_612
*397 FILLER_0_617
*398 FILLER_0_62
*399 FILLER_0_7
*400 FILLER_0_70
*401 FILLER_0_78
*402 FILLER_0_88
*403 FILLER_0_97
*404 FILLER_10_100
*405 FILLER_10_108
*406 FILLER_10_116
*407 FILLER_10_125
*408 FILLER_10_135
*409 FILLER_10_139
*410 FILLER_10_141
*411 FILLER_10_15
*412 FILLER_10_153
*413 FILLER_10_165
*414 FILLER_10_177
*415 FILLER_10_189
*416 FILLER_10_195
*417 FILLER_10_197
*418 FILLER_10_207
*419 FILLER_10_213
*420 FILLER_10_218
*421 FILLER_10_230
*422 FILLER_10_242
*423 FILLER_10_250
*424 FILLER_10_253
*425 FILLER_10_265
*426 FILLER_10_27
*427 FILLER_10_277
*428 FILLER_10_289
*429 FILLER_10_29
*430 FILLER_10_3
*431 FILLER_10_301
*432 FILLER_10_307
*433 FILLER_10_309
*434 FILLER_10_321
*435 FILLER_10_333
*436 FILLER_10_345
*437 FILLER_10_357
*438 FILLER_10_363
*439 FILLER_10_365
*440 FILLER_10_377
*441 FILLER_10_389
*442 FILLER_10_401
*443 FILLER_10_41
*444 FILLER_10_413
*445 FILLER_10_419
*446 FILLER_10_421
*447 FILLER_10_433
*448 FILLER_10_445
*449 FILLER_10_457
*450 FILLER_10_469
*451 FILLER_10_475
*452 FILLER_10_477
*453 FILLER_10_489
*454 FILLER_10_501
*455 FILLER_10_513
*456 FILLER_10_525
*457 FILLER_10_53
*458 FILLER_10_531
*459 FILLER_10_533
*460 FILLER_10_545
*461 FILLER_10_557
*462 FILLER_10_569
*463 FILLER_10_581
*464 FILLER_10_587
*465 FILLER_10_589
*466 FILLER_10_601
*467 FILLER_10_615
*468 FILLER_10_621
*469 FILLER_10_65
*470 FILLER_10_77
*471 FILLER_10_83
*472 FILLER_10_85
*473 FILLER_10_89
*474 FILLER_10_96
*475 FILLER_11_106
*476 FILLER_11_113
*477 FILLER_11_125
*478 FILLER_11_133
*479 FILLER_11_137
*480 FILLER_11_149
*481 FILLER_11_15
*482 FILLER_11_161
*483 FILLER_11_167
*484 FILLER_11_169
*485 FILLER_11_181
*486 FILLER_11_193
*487 FILLER_11_205
*488 FILLER_11_217
*489 FILLER_11_223
*490 FILLER_11_225
*491 FILLER_11_231
*492 FILLER_11_236
*493 FILLER_11_249
*494 FILLER_11_261
*495 FILLER_11_27
*496 FILLER_11_273
*497 FILLER_11_279
*498 FILLER_11_281
*499 FILLER_11_293
*500 FILLER_11_3
*501 FILLER_11_305
*502 FILLER_11_317
*503 FILLER_11_329
*504 FILLER_11_335
*505 FILLER_11_337
*506 FILLER_11_349
*507 FILLER_11_361
*508 FILLER_11_373
*509 FILLER_11_385
*510 FILLER_11_39
*511 FILLER_11_391
*512 FILLER_11_393
*513 FILLER_11_405
*514 FILLER_11_417
*515 FILLER_11_429
*516 FILLER_11_441
*517 FILLER_11_447
*518 FILLER_11_449
*519 FILLER_11_461
*520 FILLER_11_473
*521 FILLER_11_485
*522 FILLER_11_497
*523 FILLER_11_503
*524 FILLER_11_505
*525 FILLER_11_51
*526 FILLER_11_517
*527 FILLER_11_529
*528 FILLER_11_541
*529 FILLER_11_55
*530 FILLER_11_553
*531 FILLER_11_559
*532 FILLER_11_561
*533 FILLER_11_57
*534 FILLER_11_573
*535 FILLER_11_585
*536 FILLER_11_597
*537 FILLER_11_609
*538 FILLER_11_614
*539 FILLER_11_621
*540 FILLER_11_69
*541 FILLER_11_81
*542 FILLER_11_89
*543 FILLER_11_94
*544 FILLER_12_106
*545 FILLER_12_118
*546 FILLER_12_122
*547 FILLER_12_134
*548 FILLER_12_144
*549 FILLER_12_15
*550 FILLER_12_156
*551 FILLER_12_168
*552 FILLER_12_180
*553 FILLER_12_192
*554 FILLER_12_197
*555 FILLER_12_209
*556 FILLER_12_221
*557 FILLER_12_238
*558 FILLER_12_250
*559 FILLER_12_257
*560 FILLER_12_269
*561 FILLER_12_27
*562 FILLER_12_279
*563 FILLER_12_29
*564 FILLER_12_292
*565 FILLER_12_3
*566 FILLER_12_304
*567 FILLER_12_309
*568 FILLER_12_321
*569 FILLER_12_333
*570 FILLER_12_345
*571 FILLER_12_357
*572 FILLER_12_363
*573 FILLER_12_365
*574 FILLER_12_377
*575 FILLER_12_389
*576 FILLER_12_401
*577 FILLER_12_41
*578 FILLER_12_413
*579 FILLER_12_419
*580 FILLER_12_421
*581 FILLER_12_433
*582 FILLER_12_445
*583 FILLER_12_457
*584 FILLER_12_469
*585 FILLER_12_475
*586 FILLER_12_477
*587 FILLER_12_489
*588 FILLER_12_501
*589 FILLER_12_513
*590 FILLER_12_525
*591 FILLER_12_53
*592 FILLER_12_531
*593 FILLER_12_533
*594 FILLER_12_545
*595 FILLER_12_557
*596 FILLER_12_569
*597 FILLER_12_581
*598 FILLER_12_587
*599 FILLER_12_589
*600 FILLER_12_601
*601 FILLER_12_613
*602 FILLER_12_621
*603 FILLER_12_65
*604 FILLER_12_77
*605 FILLER_12_83
*606 FILLER_12_85
*607 FILLER_12_97
*608 FILLER_13_105
*609 FILLER_13_111
*610 FILLER_13_113
*611 FILLER_13_125
*612 FILLER_13_137
*613 FILLER_13_149
*614 FILLER_13_15
*615 FILLER_13_161
*616 FILLER_13_167
*617 FILLER_13_169
*618 FILLER_13_181
*619 FILLER_13_193
*620 FILLER_13_205
*621 FILLER_13_217
*622 FILLER_13_223
*623 FILLER_13_225
*624 FILLER_13_237
*625 FILLER_13_249
*626 FILLER_13_264
*627 FILLER_13_27
*628 FILLER_13_272
*629 FILLER_13_290
*630 FILLER_13_3
*631 FILLER_13_302
*632 FILLER_13_314
*633 FILLER_13_326
*634 FILLER_13_334
*635 FILLER_13_337
*636 FILLER_13_349
*637 FILLER_13_361
*638 FILLER_13_373
*639 FILLER_13_385
*640 FILLER_13_39
*641 FILLER_13_391
*642 FILLER_13_393
*643 FILLER_13_405
*644 FILLER_13_417
*645 FILLER_13_429
*646 FILLER_13_441
*647 FILLER_13_447
*648 FILLER_13_449
*649 FILLER_13_461
*650 FILLER_13_473
*651 FILLER_13_485
*652 FILLER_13_497
*653 FILLER_13_503
*654 FILLER_13_505
*655 FILLER_13_51
*656 FILLER_13_517
*657 FILLER_13_529
*658 FILLER_13_541
*659 FILLER_13_55
*660 FILLER_13_553
*661 FILLER_13_559
*662 FILLER_13_561
*663 FILLER_13_57
*664 FILLER_13_573
*665 FILLER_13_585
*666 FILLER_13_597
*667 FILLER_13_609
*668 FILLER_13_615
*669 FILLER_13_621
*670 FILLER_13_69
*671 FILLER_13_81
*672 FILLER_13_93
*673 FILLER_14_109
*674 FILLER_14_121
*675 FILLER_14_133
*676 FILLER_14_139
*677 FILLER_14_141
*678 FILLER_14_15
*679 FILLER_14_153
*680 FILLER_14_165
*681 FILLER_14_177
*682 FILLER_14_189
*683 FILLER_14_195
*684 FILLER_14_197
*685 FILLER_14_209
*686 FILLER_14_221
*687 FILLER_14_233
*688 FILLER_14_245
*689 FILLER_14_251
*690 FILLER_14_253
*691 FILLER_14_265
*692 FILLER_14_27
*693 FILLER_14_277
*694 FILLER_14_283
*695 FILLER_14_29
*696 FILLER_14_295
*697 FILLER_14_3
*698 FILLER_14_307
*699 FILLER_14_309
*700 FILLER_14_321
*701 FILLER_14_333
*702 FILLER_14_345
*703 FILLER_14_357
*704 FILLER_14_363
*705 FILLER_14_365
*706 FILLER_14_377
*707 FILLER_14_389
*708 FILLER_14_401
*709 FILLER_14_41
*710 FILLER_14_413
*711 FILLER_14_419
*712 FILLER_14_421
*713 FILLER_14_433
*714 FILLER_14_445
*715 FILLER_14_457
*716 FILLER_14_469
*717 FILLER_14_475
*718 FILLER_14_477
*719 FILLER_14_489
*720 FILLER_14_501
*721 FILLER_14_513
*722 FILLER_14_525
*723 FILLER_14_53
*724 FILLER_14_531
*725 FILLER_14_533
*726 FILLER_14_545
*727 FILLER_14_557
*728 FILLER_14_569
*729 FILLER_14_581
*730 FILLER_14_587
*731 FILLER_14_589
*732 FILLER_14_601
*733 FILLER_14_615
*734 FILLER_14_621
*735 FILLER_14_65
*736 FILLER_14_77
*737 FILLER_14_83
*738 FILLER_14_85
*739 FILLER_14_97
*740 FILLER_15_105
*741 FILLER_15_111
*742 FILLER_15_113
*743 FILLER_15_125
*744 FILLER_15_137
*745 FILLER_15_149
*746 FILLER_15_15
*747 FILLER_15_161
*748 FILLER_15_167
*749 FILLER_15_169
*750 FILLER_15_181
*751 FILLER_15_193
*752 FILLER_15_205
*753 FILLER_15_217
*754 FILLER_15_223
*755 FILLER_15_225
*756 FILLER_15_237
*757 FILLER_15_249
*758 FILLER_15_261
*759 FILLER_15_27
*760 FILLER_15_273
*761 FILLER_15_279
*762 FILLER_15_281
*763 FILLER_15_293
*764 FILLER_15_3
*765 FILLER_15_305
*766 FILLER_15_317
*767 FILLER_15_329
*768 FILLER_15_335
*769 FILLER_15_337
*770 FILLER_15_349
*771 FILLER_15_361
*772 FILLER_15_373
*773 FILLER_15_385
*774 FILLER_15_39
*775 FILLER_15_391
*776 FILLER_15_393
*777 FILLER_15_405
*778 FILLER_15_417
*779 FILLER_15_429
*780 FILLER_15_441
*781 FILLER_15_447
*782 FILLER_15_449
*783 FILLER_15_461
*784 FILLER_15_473
*785 FILLER_15_485
*786 FILLER_15_497
*787 FILLER_15_503
*788 FILLER_15_505
*789 FILLER_15_51
*790 FILLER_15_517
*791 FILLER_15_529
*792 FILLER_15_541
*793 FILLER_15_55
*794 FILLER_15_553
*795 FILLER_15_559
*796 FILLER_15_561
*797 FILLER_15_57
*798 FILLER_15_573
*799 FILLER_15_585
*800 FILLER_15_597
*801 FILLER_15_605
*802 FILLER_15_612
*803 FILLER_15_621
*804 FILLER_15_69
*805 FILLER_15_81
*806 FILLER_15_93
*807 FILLER_16_109
*808 FILLER_16_121
*809 FILLER_16_133
*810 FILLER_16_139
*811 FILLER_16_141
*812 FILLER_16_15
*813 FILLER_16_153
*814 FILLER_16_165
*815 FILLER_16_177
*816 FILLER_16_189
*817 FILLER_16_195
*818 FILLER_16_197
*819 FILLER_16_209
*820 FILLER_16_221
*821 FILLER_16_233
*822 FILLER_16_245
*823 FILLER_16_251
*824 FILLER_16_253
*825 FILLER_16_265
*826 FILLER_16_27
*827 FILLER_16_277
*828 FILLER_16_289
*829 FILLER_16_29
*830 FILLER_16_3
*831 FILLER_16_301
*832 FILLER_16_307
*833 FILLER_16_309
*834 FILLER_16_319
*835 FILLER_16_327
*836 FILLER_16_339
*837 FILLER_16_351
*838 FILLER_16_363
*839 FILLER_16_365
*840 FILLER_16_377
*841 FILLER_16_389
*842 FILLER_16_401
*843 FILLER_16_41
*844 FILLER_16_413
*845 FILLER_16_419
*846 FILLER_16_427
*847 FILLER_16_439
*848 FILLER_16_451
*849 FILLER_16_463
*850 FILLER_16_475
*851 FILLER_16_477
*852 FILLER_16_489
*853 FILLER_16_501
*854 FILLER_16_513
*855 FILLER_16_525
*856 FILLER_16_53
*857 FILLER_16_531
*858 FILLER_16_533
*859 FILLER_16_545
*860 FILLER_16_557
*861 FILLER_16_569
*862 FILLER_16_581
*863 FILLER_16_587
*864 FILLER_16_589
*865 FILLER_16_601
*866 FILLER_16_613
*867 FILLER_16_621
*868 FILLER_16_65
*869 FILLER_16_77
*870 FILLER_16_83
*871 FILLER_16_85
*872 FILLER_16_97
*873 FILLER_17_105
*874 FILLER_17_111
*875 FILLER_17_113
*876 FILLER_17_125
*877 FILLER_17_137
*878 FILLER_17_149
*879 FILLER_17_15
*880 FILLER_17_161
*881 FILLER_17_167
*882 FILLER_17_169
*883 FILLER_17_181
*884 FILLER_17_193
*885 FILLER_17_205
*886 FILLER_17_217
*887 FILLER_17_223
*888 FILLER_17_225
*889 FILLER_17_237
*890 FILLER_17_249
*891 FILLER_17_261
*892 FILLER_17_27
*893 FILLER_17_273
*894 FILLER_17_279
*895 FILLER_17_281
*896 FILLER_17_293
*897 FILLER_17_3
*898 FILLER_17_305
*899 FILLER_17_317
*900 FILLER_17_330
*901 FILLER_17_346
*902 FILLER_17_354
*903 FILLER_17_361
*904 FILLER_17_373
*905 FILLER_17_385
*906 FILLER_17_39
*907 FILLER_17_391
*908 FILLER_17_393
*909 FILLER_17_405
*910 FILLER_17_417
*911 FILLER_17_429
*912 FILLER_17_441
*913 FILLER_17_447
*914 FILLER_17_449
*915 FILLER_17_461
*916 FILLER_17_473
*917 FILLER_17_485
*918 FILLER_17_497
*919 FILLER_17_503
*920 FILLER_17_505
*921 FILLER_17_51
*922 FILLER_17_517
*923 FILLER_17_529
*924 FILLER_17_541
*925 FILLER_17_55
*926 FILLER_17_553
*927 FILLER_17_559
*928 FILLER_17_561
*929 FILLER_17_57
*930 FILLER_17_573
*931 FILLER_17_585
*932 FILLER_17_597
*933 FILLER_17_609
*934 FILLER_17_615
*935 FILLER_17_621
*936 FILLER_17_69
*937 FILLER_17_81
*938 FILLER_17_93
*939 FILLER_18_109
*940 FILLER_18_121
*941 FILLER_18_133
*942 FILLER_18_139
*943 FILLER_18_141
*944 FILLER_18_15
*945 FILLER_18_153
*946 FILLER_18_165
*947 FILLER_18_177
*948 FILLER_18_189
*949 FILLER_18_195
*950 FILLER_18_197
*951 FILLER_18_209
*952 FILLER_18_221
*953 FILLER_18_233
*954 FILLER_18_245
*955 FILLER_18_251
*956 FILLER_18_253
*957 FILLER_18_265
*958 FILLER_18_27
*959 FILLER_18_277
*960 FILLER_18_289
*961 FILLER_18_29
*962 FILLER_18_3
*963 FILLER_18_301
*964 FILLER_18_307
*965 FILLER_18_309
*966 FILLER_18_321
*967 FILLER_18_325
*968 FILLER_18_330
*969 FILLER_18_338
*970 FILLER_18_345
*971 FILLER_18_349
*972 FILLER_18_359
*973 FILLER_18_363
*974 FILLER_18_374
*975 FILLER_18_386
*976 FILLER_18_398
*977 FILLER_18_406
*978 FILLER_18_41
*979 FILLER_18_412
*980 FILLER_18_421
*981 FILLER_18_433
*982 FILLER_18_445
*983 FILLER_18_457
*984 FILLER_18_469
*985 FILLER_18_475
*986 FILLER_18_477
*987 FILLER_18_489
*988 FILLER_18_501
*989 FILLER_18_513
*990 FILLER_18_525
*991 FILLER_18_53
*992 FILLER_18_531
*993 FILLER_18_533
*994 FILLER_18_545
*995 FILLER_18_557
*996 FILLER_18_569
*997 FILLER_18_581
*998 FILLER_18_587
*999 FILLER_18_589
*1000 FILLER_18_601
*1001 FILLER_18_613
*1002 FILLER_18_621
*1003 FILLER_18_65
*1004 FILLER_18_77
*1005 FILLER_18_83
*1006 FILLER_18_85
*1007 FILLER_18_97
*1008 FILLER_19_105
*1009 FILLER_19_111
*1010 FILLER_19_113
*1011 FILLER_19_125
*1012 FILLER_19_137
*1013 FILLER_19_149
*1014 FILLER_19_15
*1015 FILLER_19_161
*1016 FILLER_19_167
*1017 FILLER_19_169
*1018 FILLER_19_181
*1019 FILLER_19_193
*1020 FILLER_19_205
*1021 FILLER_19_217
*1022 FILLER_19_223
*1023 FILLER_19_225
*1024 FILLER_19_237
*1025 FILLER_19_249
*1026 FILLER_19_261
*1027 FILLER_19_27
*1028 FILLER_19_273
*1029 FILLER_19_279
*1030 FILLER_19_281
*1031 FILLER_19_293
*1032 FILLER_19_3
*1033 FILLER_19_305
*1034 FILLER_19_317
*1035 FILLER_19_329
*1036 FILLER_19_335
*1037 FILLER_19_337
*1038 FILLER_19_349
*1039 FILLER_19_361
*1040 FILLER_19_373
*1041 FILLER_19_385
*1042 FILLER_19_39
*1043 FILLER_19_391
*1044 FILLER_19_393
*1045 FILLER_19_401
*1046 FILLER_19_406
*1047 FILLER_19_418
*1048 FILLER_19_430
*1049 FILLER_19_442
*1050 FILLER_19_449
*1051 FILLER_19_461
*1052 FILLER_19_473
*1053 FILLER_19_485
*1054 FILLER_19_497
*1055 FILLER_19_503
*1056 FILLER_19_505
*1057 FILLER_19_51
*1058 FILLER_19_517
*1059 FILLER_19_529
*1060 FILLER_19_541
*1061 FILLER_19_55
*1062 FILLER_19_553
*1063 FILLER_19_559
*1064 FILLER_19_561
*1065 FILLER_19_57
*1066 FILLER_19_573
*1067 FILLER_19_585
*1068 FILLER_19_597
*1069 FILLER_19_609
*1070 FILLER_19_614
*1071 FILLER_19_621
*1072 FILLER_19_69
*1073 FILLER_19_81
*1074 FILLER_19_93
*1075 FILLER_1_107
*1076 FILLER_1_111
*1077 FILLER_1_113
*1078 FILLER_1_117
*1079 FILLER_1_124
*1080 FILLER_1_133
*1081 FILLER_1_14
*1082 FILLER_1_140
*1083 FILLER_1_152
*1084 FILLER_1_164
*1085 FILLER_1_169
*1086 FILLER_1_181
*1087 FILLER_1_193
*1088 FILLER_1_205
*1089 FILLER_1_217
*1090 FILLER_1_22
*1091 FILLER_1_223
*1092 FILLER_1_225
*1093 FILLER_1_237
*1094 FILLER_1_249
*1095 FILLER_1_261
*1096 FILLER_1_273
*1097 FILLER_1_279
*1098 FILLER_1_281
*1099 FILLER_1_293
*1100 FILLER_1_3
*1101 FILLER_1_305
*1102 FILLER_1_317
*1103 FILLER_1_32
*1104 FILLER_1_329
*1105 FILLER_1_335
*1106 FILLER_1_337
*1107 FILLER_1_349
*1108 FILLER_1_36
*1109 FILLER_1_361
*1110 FILLER_1_373
*1111 FILLER_1_385
*1112 FILLER_1_391
*1113 FILLER_1_393
*1114 FILLER_1_405
*1115 FILLER_1_417
*1116 FILLER_1_429
*1117 FILLER_1_43
*1118 FILLER_1_441
*1119 FILLER_1_447
*1120 FILLER_1_449
*1121 FILLER_1_461
*1122 FILLER_1_473
*1123 FILLER_1_485
*1124 FILLER_1_497
*1125 FILLER_1_50
*1126 FILLER_1_503
*1127 FILLER_1_505
*1128 FILLER_1_517
*1129 FILLER_1_533
*1130 FILLER_1_545
*1131 FILLER_1_557
*1132 FILLER_1_561
*1133 FILLER_1_569
*1134 FILLER_1_580
*1135 FILLER_1_588
*1136 FILLER_1_597
*1137 FILLER_1_611
*1138 FILLER_1_615
*1139 FILLER_1_617
*1140 FILLER_1_63
*1141 FILLER_1_72
*1142 FILLER_1_79
*1143 FILLER_1_85
*1144 FILLER_1_89
*1145 FILLER_1_98
*1146 FILLER_20_109
*1147 FILLER_20_121
*1148 FILLER_20_133
*1149 FILLER_20_139
*1150 FILLER_20_141
*1151 FILLER_20_15
*1152 FILLER_20_153
*1153 FILLER_20_165
*1154 FILLER_20_177
*1155 FILLER_20_189
*1156 FILLER_20_195
*1157 FILLER_20_197
*1158 FILLER_20_209
*1159 FILLER_20_221
*1160 FILLER_20_233
*1161 FILLER_20_245
*1162 FILLER_20_251
*1163 FILLER_20_253
*1164 FILLER_20_265
*1165 FILLER_20_27
*1166 FILLER_20_277
*1167 FILLER_20_289
*1168 FILLER_20_29
*1169 FILLER_20_3
*1170 FILLER_20_301
*1171 FILLER_20_307
*1172 FILLER_20_309
*1173 FILLER_20_321
*1174 FILLER_20_333
*1175 FILLER_20_345
*1176 FILLER_20_357
*1177 FILLER_20_363
*1178 FILLER_20_365
*1179 FILLER_20_377
*1180 FILLER_20_389
*1181 FILLER_20_403
*1182 FILLER_20_41
*1183 FILLER_20_415
*1184 FILLER_20_419
*1185 FILLER_20_421
*1186 FILLER_20_433
*1187 FILLER_20_445
*1188 FILLER_20_457
*1189 FILLER_20_469
*1190 FILLER_20_475
*1191 FILLER_20_477
*1192 FILLER_20_489
*1193 FILLER_20_501
*1194 FILLER_20_513
*1195 FILLER_20_525
*1196 FILLER_20_53
*1197 FILLER_20_531
*1198 FILLER_20_533
*1199 FILLER_20_545
*1200 FILLER_20_557
*1201 FILLER_20_569
*1202 FILLER_20_581
*1203 FILLER_20_587
*1204 FILLER_20_589
*1205 FILLER_20_601
*1206 FILLER_20_613
*1207 FILLER_20_621
*1208 FILLER_20_65
*1209 FILLER_20_77
*1210 FILLER_20_83
*1211 FILLER_20_85
*1212 FILLER_20_97
*1213 FILLER_21_105
*1214 FILLER_21_111
*1215 FILLER_21_113
*1216 FILLER_21_125
*1217 FILLER_21_137
*1218 FILLER_21_149
*1219 FILLER_21_15
*1220 FILLER_21_161
*1221 FILLER_21_167
*1222 FILLER_21_169
*1223 FILLER_21_181
*1224 FILLER_21_193
*1225 FILLER_21_205
*1226 FILLER_21_217
*1227 FILLER_21_223
*1228 FILLER_21_225
*1229 FILLER_21_237
*1230 FILLER_21_249
*1231 FILLER_21_261
*1232 FILLER_21_27
*1233 FILLER_21_273
*1234 FILLER_21_279
*1235 FILLER_21_281
*1236 FILLER_21_293
*1237 FILLER_21_3
*1238 FILLER_21_305
*1239 FILLER_21_317
*1240 FILLER_21_329
*1241 FILLER_21_335
*1242 FILLER_21_337
*1243 FILLER_21_349
*1244 FILLER_21_361
*1245 FILLER_21_373
*1246 FILLER_21_385
*1247 FILLER_21_39
*1248 FILLER_21_391
*1249 FILLER_21_393
*1250 FILLER_21_401
*1251 FILLER_21_413
*1252 FILLER_21_425
*1253 FILLER_21_437
*1254 FILLER_21_445
*1255 FILLER_21_449
*1256 FILLER_21_461
*1257 FILLER_21_473
*1258 FILLER_21_485
*1259 FILLER_21_497
*1260 FILLER_21_503
*1261 FILLER_21_505
*1262 FILLER_21_51
*1263 FILLER_21_517
*1264 FILLER_21_529
*1265 FILLER_21_541
*1266 FILLER_21_55
*1267 FILLER_21_553
*1268 FILLER_21_559
*1269 FILLER_21_561
*1270 FILLER_21_57
*1271 FILLER_21_573
*1272 FILLER_21_585
*1273 FILLER_21_597
*1274 FILLER_21_609
*1275 FILLER_21_615
*1276 FILLER_21_621
*1277 FILLER_21_69
*1278 FILLER_21_81
*1279 FILLER_21_93
*1280 FILLER_22_109
*1281 FILLER_22_121
*1282 FILLER_22_133
*1283 FILLER_22_139
*1284 FILLER_22_141
*1285 FILLER_22_15
*1286 FILLER_22_153
*1287 FILLER_22_165
*1288 FILLER_22_177
*1289 FILLER_22_189
*1290 FILLER_22_195
*1291 FILLER_22_197
*1292 FILLER_22_209
*1293 FILLER_22_221
*1294 FILLER_22_233
*1295 FILLER_22_245
*1296 FILLER_22_251
*1297 FILLER_22_253
*1298 FILLER_22_265
*1299 FILLER_22_27
*1300 FILLER_22_277
*1301 FILLER_22_289
*1302 FILLER_22_29
*1303 FILLER_22_3
*1304 FILLER_22_301
*1305 FILLER_22_307
*1306 FILLER_22_309
*1307 FILLER_22_321
*1308 FILLER_22_333
*1309 FILLER_22_345
*1310 FILLER_22_357
*1311 FILLER_22_363
*1312 FILLER_22_365
*1313 FILLER_22_377
*1314 FILLER_22_389
*1315 FILLER_22_404
*1316 FILLER_22_41
*1317 FILLER_22_416
*1318 FILLER_22_431
*1319 FILLER_22_444
*1320 FILLER_22_456
*1321 FILLER_22_468
*1322 FILLER_22_477
*1323 FILLER_22_489
*1324 FILLER_22_501
*1325 FILLER_22_513
*1326 FILLER_22_525
*1327 FILLER_22_53
*1328 FILLER_22_531
*1329 FILLER_22_533
*1330 FILLER_22_545
*1331 FILLER_22_557
*1332 FILLER_22_569
*1333 FILLER_22_581
*1334 FILLER_22_587
*1335 FILLER_22_589
*1336 FILLER_22_601
*1337 FILLER_22_613
*1338 FILLER_22_621
*1339 FILLER_22_65
*1340 FILLER_22_77
*1341 FILLER_22_83
*1342 FILLER_22_85
*1343 FILLER_22_97
*1344 FILLER_23_105
*1345 FILLER_23_111
*1346 FILLER_23_113
*1347 FILLER_23_125
*1348 FILLER_23_137
*1349 FILLER_23_149
*1350 FILLER_23_15
*1351 FILLER_23_161
*1352 FILLER_23_167
*1353 FILLER_23_169
*1354 FILLER_23_181
*1355 FILLER_23_193
*1356 FILLER_23_205
*1357 FILLER_23_217
*1358 FILLER_23_223
*1359 FILLER_23_225
*1360 FILLER_23_237
*1361 FILLER_23_249
*1362 FILLER_23_261
*1363 FILLER_23_27
*1364 FILLER_23_273
*1365 FILLER_23_279
*1366 FILLER_23_281
*1367 FILLER_23_293
*1368 FILLER_23_3
*1369 FILLER_23_305
*1370 FILLER_23_317
*1371 FILLER_23_329
*1372 FILLER_23_335
*1373 FILLER_23_337
*1374 FILLER_23_349
*1375 FILLER_23_361
*1376 FILLER_23_373
*1377 FILLER_23_385
*1378 FILLER_23_39
*1379 FILLER_23_391
*1380 FILLER_23_393
*1381 FILLER_23_405
*1382 FILLER_23_420
*1383 FILLER_23_432
*1384 FILLER_23_444
*1385 FILLER_23_459
*1386 FILLER_23_471
*1387 FILLER_23_483
*1388 FILLER_23_495
*1389 FILLER_23_503
*1390 FILLER_23_505
*1391 FILLER_23_51
*1392 FILLER_23_517
*1393 FILLER_23_529
*1394 FILLER_23_541
*1395 FILLER_23_55
*1396 FILLER_23_553
*1397 FILLER_23_559
*1398 FILLER_23_561
*1399 FILLER_23_57
*1400 FILLER_23_573
*1401 FILLER_23_585
*1402 FILLER_23_597
*1403 FILLER_23_609
*1404 FILLER_23_615
*1405 FILLER_23_621
*1406 FILLER_23_69
*1407 FILLER_23_81
*1408 FILLER_23_93
*1409 FILLER_24_109
*1410 FILLER_24_121
*1411 FILLER_24_133
*1412 FILLER_24_139
*1413 FILLER_24_141
*1414 FILLER_24_15
*1415 FILLER_24_153
*1416 FILLER_24_165
*1417 FILLER_24_177
*1418 FILLER_24_189
*1419 FILLER_24_195
*1420 FILLER_24_197
*1421 FILLER_24_209
*1422 FILLER_24_221
*1423 FILLER_24_233
*1424 FILLER_24_245
*1425 FILLER_24_251
*1426 FILLER_24_253
*1427 FILLER_24_265
*1428 FILLER_24_27
*1429 FILLER_24_277
*1430 FILLER_24_289
*1431 FILLER_24_29
*1432 FILLER_24_3
*1433 FILLER_24_301
*1434 FILLER_24_307
*1435 FILLER_24_309
*1436 FILLER_24_321
*1437 FILLER_24_333
*1438 FILLER_24_345
*1439 FILLER_24_357
*1440 FILLER_24_363
*1441 FILLER_24_365
*1442 FILLER_24_377
*1443 FILLER_24_389
*1444 FILLER_24_401
*1445 FILLER_24_41
*1446 FILLER_24_413
*1447 FILLER_24_419
*1448 FILLER_24_421
*1449 FILLER_24_433
*1450 FILLER_24_448
*1451 FILLER_24_460
*1452 FILLER_24_472
*1453 FILLER_24_477
*1454 FILLER_24_489
*1455 FILLER_24_501
*1456 FILLER_24_513
*1457 FILLER_24_525
*1458 FILLER_24_53
*1459 FILLER_24_531
*1460 FILLER_24_533
*1461 FILLER_24_545
*1462 FILLER_24_557
*1463 FILLER_24_569
*1464 FILLER_24_581
*1465 FILLER_24_587
*1466 FILLER_24_589
*1467 FILLER_24_601
*1468 FILLER_24_613
*1469 FILLER_24_621
*1470 FILLER_24_65
*1471 FILLER_24_77
*1472 FILLER_24_83
*1473 FILLER_24_85
*1474 FILLER_24_97
*1475 FILLER_25_105
*1476 FILLER_25_111
*1477 FILLER_25_113
*1478 FILLER_25_125
*1479 FILLER_25_137
*1480 FILLER_25_149
*1481 FILLER_25_15
*1482 FILLER_25_161
*1483 FILLER_25_167
*1484 FILLER_25_169
*1485 FILLER_25_181
*1486 FILLER_25_193
*1487 FILLER_25_205
*1488 FILLER_25_217
*1489 FILLER_25_223
*1490 FILLER_25_225
*1491 FILLER_25_237
*1492 FILLER_25_249
*1493 FILLER_25_261
*1494 FILLER_25_27
*1495 FILLER_25_273
*1496 FILLER_25_279
*1497 FILLER_25_281
*1498 FILLER_25_293
*1499 FILLER_25_3
*1500 FILLER_25_305
*1501 FILLER_25_317
*1502 FILLER_25_329
*1503 FILLER_25_335
*1504 FILLER_25_337
*1505 FILLER_25_349
*1506 FILLER_25_361
*1507 FILLER_25_373
*1508 FILLER_25_385
*1509 FILLER_25_39
*1510 FILLER_25_391
*1511 FILLER_25_393
*1512 FILLER_25_405
*1513 FILLER_25_417
*1514 FILLER_25_429
*1515 FILLER_25_441
*1516 FILLER_25_447
*1517 FILLER_25_449
*1518 FILLER_25_461
*1519 FILLER_25_469
*1520 FILLER_25_473
*1521 FILLER_25_485
*1522 FILLER_25_497
*1523 FILLER_25_503
*1524 FILLER_25_505
*1525 FILLER_25_51
*1526 FILLER_25_517
*1527 FILLER_25_529
*1528 FILLER_25_541
*1529 FILLER_25_55
*1530 FILLER_25_553
*1531 FILLER_25_559
*1532 FILLER_25_561
*1533 FILLER_25_57
*1534 FILLER_25_573
*1535 FILLER_25_585
*1536 FILLER_25_597
*1537 FILLER_25_612
*1538 FILLER_25_621
*1539 FILLER_25_69
*1540 FILLER_25_81
*1541 FILLER_25_93
*1542 FILLER_26_109
*1543 FILLER_26_121
*1544 FILLER_26_133
*1545 FILLER_26_139
*1546 FILLER_26_141
*1547 FILLER_26_15
*1548 FILLER_26_153
*1549 FILLER_26_165
*1550 FILLER_26_177
*1551 FILLER_26_189
*1552 FILLER_26_195
*1553 FILLER_26_197
*1554 FILLER_26_209
*1555 FILLER_26_221
*1556 FILLER_26_233
*1557 FILLER_26_245
*1558 FILLER_26_251
*1559 FILLER_26_253
*1560 FILLER_26_265
*1561 FILLER_26_27
*1562 FILLER_26_277
*1563 FILLER_26_289
*1564 FILLER_26_29
*1565 FILLER_26_3
*1566 FILLER_26_301
*1567 FILLER_26_307
*1568 FILLER_26_309
*1569 FILLER_26_321
*1570 FILLER_26_333
*1571 FILLER_26_345
*1572 FILLER_26_357
*1573 FILLER_26_363
*1574 FILLER_26_365
*1575 FILLER_26_377
*1576 FILLER_26_389
*1577 FILLER_26_401
*1578 FILLER_26_41
*1579 FILLER_26_413
*1580 FILLER_26_419
*1581 FILLER_26_421
*1582 FILLER_26_433
*1583 FILLER_26_445
*1584 FILLER_26_457
*1585 FILLER_26_461
*1586 FILLER_26_471
*1587 FILLER_26_475
*1588 FILLER_26_486
*1589 FILLER_26_493
*1590 FILLER_26_505
*1591 FILLER_26_517
*1592 FILLER_26_529
*1593 FILLER_26_53
*1594 FILLER_26_533
*1595 FILLER_26_545
*1596 FILLER_26_557
*1597 FILLER_26_569
*1598 FILLER_26_581
*1599 FILLER_26_587
*1600 FILLER_26_589
*1601 FILLER_26_601
*1602 FILLER_26_606
*1603 FILLER_26_613
*1604 FILLER_26_621
*1605 FILLER_26_65
*1606 FILLER_26_77
*1607 FILLER_26_83
*1608 FILLER_26_85
*1609 FILLER_26_97
*1610 FILLER_27_105
*1611 FILLER_27_111
*1612 FILLER_27_113
*1613 FILLER_27_125
*1614 FILLER_27_137
*1615 FILLER_27_149
*1616 FILLER_27_15
*1617 FILLER_27_161
*1618 FILLER_27_167
*1619 FILLER_27_169
*1620 FILLER_27_181
*1621 FILLER_27_193
*1622 FILLER_27_205
*1623 FILLER_27_217
*1624 FILLER_27_223
*1625 FILLER_27_225
*1626 FILLER_27_237
*1627 FILLER_27_249
*1628 FILLER_27_261
*1629 FILLER_27_27
*1630 FILLER_27_273
*1631 FILLER_27_279
*1632 FILLER_27_281
*1633 FILLER_27_293
*1634 FILLER_27_3
*1635 FILLER_27_305
*1636 FILLER_27_317
*1637 FILLER_27_329
*1638 FILLER_27_335
*1639 FILLER_27_337
*1640 FILLER_27_349
*1641 FILLER_27_361
*1642 FILLER_27_373
*1643 FILLER_27_385
*1644 FILLER_27_39
*1645 FILLER_27_391
*1646 FILLER_27_393
*1647 FILLER_27_405
*1648 FILLER_27_417
*1649 FILLER_27_429
*1650 FILLER_27_441
*1651 FILLER_27_447
*1652 FILLER_27_449