*SPEF "ieee 1481-1999"
*DESIGN "merge_memory"
*DATE "11:11:11 Fri 11 11, 1111"
*VENDOR "OpenRCX"
*PROGRAM "Parallel Extraction"
*VERSION "1.0"
*DESIGN_FLOW "NAME_SCOPE LOCAL" "PIN_CAP NONE"
*DIVIDER /
*DELIMITER :
*BUS_DELIMITER []
*T_UNIT 1 NS
*C_UNIT 1 PF
*R_UNIT 1 OHM
*L_UNIT 1 HENRY

*NAME_MAP
*1 addr[0]
*2 addr[1]
*3 addr[2]
*4 addr[3]
*5 addr[4]
*6 addr[5]
*7 addr[6]
*8 addr[7]
*9 addr[8]
*10 addr[9]
*11 addr_mem0[0]
*12 addr_mem0[1]
*13 addr_mem0[2]
*14 addr_mem0[3]
*15 addr_mem0[4]
*16 addr_mem0[5]
*17 addr_mem0[6]
*18 addr_mem0[7]
*19 addr_mem0[8]
*20 addr_mem1[0]
*21 addr_mem1[1]
*22 addr_mem1[2]
*23 addr_mem1[3]
*24 addr_mem1[4]
*25 addr_mem1[5]
*26 addr_mem1[6]
*27 addr_mem1[7]
*28 addr_mem1[8]
*29 csb
*30 csb_mem0
*31 csb_mem1
*32 dout[0]
*33 dout[10]
*34 dout[11]
*35 dout[12]
*36 dout[13]
*37 dout[14]
*38 dout[15]
*39 dout[16]
*40 dout[17]
*41 dout[18]
*42 dout[19]
*43 dout[1]
*44 dout[20]
*45 dout[21]
*46 dout[22]
*47 dout[23]
*48 dout[24]
*49 dout[25]
*50 dout[26]
*51 dout[27]
*52 dout[28]
*53 dout[29]
*54 dout[2]
*55 dout[30]
*56 dout[31]
*57 dout[3]
*58 dout[4]
*59 dout[5]
*60 dout[6]
*61 dout[7]
*62 dout[8]
*63 dout[9]
*64 dout_mem0[0]
*65 dout_mem0[10]
*66 dout_mem0[11]
*67 dout_mem0[12]
*68 dout_mem0[13]
*69 dout_mem0[14]
*70 dout_mem0[15]
*71 dout_mem0[16]
*72 dout_mem0[17]
*73 dout_mem0[18]
*74 dout_mem0[19]
*75 dout_mem0[1]
*76 dout_mem0[20]
*77 dout_mem0[21]
*78 dout_mem0[22]
*79 dout_mem0[23]
*80 dout_mem0[24]
*81 dout_mem0[25]
*82 dout_mem0[26]
*83 dout_mem0[27]
*84 dout_mem0[28]
*85 dout_mem0[29]
*86 dout_mem0[2]
*87 dout_mem0[30]
*88 dout_mem0[31]
*89 dout_mem0[3]
*90 dout_mem0[4]
*91 dout_mem0[5]
*92 dout_mem0[6]
*93 dout_mem0[7]
*94 dout_mem0[8]
*95 dout_mem0[9]
*96 dout_mem1[0]
*97 dout_mem1[10]
*98 dout_mem1[11]
*99 dout_mem1[12]
*100 dout_mem1[13]
*101 dout_mem1[14]
*102 dout_mem1[15]
*103 dout_mem1[16]
*104 dout_mem1[17]
*105 dout_mem1[18]
*106 dout_mem1[19]
*107 dout_mem1[1]
*108 dout_mem1[20]
*109 dout_mem1[21]
*110 dout_mem1[22]
*111 dout_mem1[23]
*112 dout_mem1[24]
*113 dout_mem1[25]
*114 dout_mem1[26]
*115 dout_mem1[27]
*116 dout_mem1[28]
*117 dout_mem1[29]
*118 dout_mem1[2]
*119 dout_mem1[30]
*120 dout_mem1[31]
*121 dout_mem1[3]
*122 dout_mem1[4]
*123 dout_mem1[5]
*124 dout_mem1[6]
*125 dout_mem1[7]
*126 dout_mem1[8]
*127 dout_mem1[9]
*130 _000_
*131 _001_
*132 _002_
*133 _003_
*134 _004_
*135 _005_
*136 _006_
*137 _007_
*138 _008_
*139 _009_
*140 _010_
*141 _011_
*142 _012_
*143 _013_
*144 _014_
*145 _015_
*146 _016_
*147 _017_
*148 _018_
*149 _019_
*150 _020_
*151 _021_
*152 _022_
*153 _023_
*154 _024_
*155 _025_
*156 _026_
*157 _027_
*158 _028_
*159 _029_
*160 _030_
*161 _031_
*162 _032_
*163 _033_
*164 _034_
*165 _035_
*166 _036_
*167 _037_
*168 _038_
*169 net1
*170 net10
*171 net100
*172 net101
*173 net102
*174 net103
*175 net104
*176 net105
*177 net106
*178 net107
*179 net108
*180 net109
*181 net11
*182 net110
*183 net111
*184 net112
*185 net113
*186 net114
*187 net115
*188 net116
*189 net117
*190 net118
*191 net119
*192 net12
*193 net120
*194 net121
*195 net122
*196 net123
*197 net124
*198 net125
*199 net126
*200 net127
*201 net13
*202 net14
*203 net15
*204 net16
*205 net17
*206 net18
*207 net19
*208 net2
*209 net20
*210 net21
*211 net22
*212 net23
*213 net24
*214 net25
*215 net26
*216 net27
*217 net28
*218 net29
*219 net3
*220 net30
*221 net31
*222 net32
*223 net33
*224 net34
*225 net35
*226 net36
*227 net37
*228 net38
*229 net39
*230 net4
*231 net40
*232 net41
*233 net42
*234 net43
*235 net44
*236 net45
*237 net46
*238 net47
*239 net48
*240 net49
*241 net5
*242 net50
*243 net51
*244 net52
*245 net53
*246 net54
*247 net55
*248 net56
*249 net57
*250 net58
*251 net59
*252 net6
*253 net60
*254 net61
*255 net62
*256 net63
*257 net64
*258 net65
*259 net66
*260 net67
*261 net68
*262 net69
*263 net7
*264 net70
*265 net71
*266 net72
*267 net73
*268 net74
*269 net75
*270 net76
*271 net77
*272 net78
*273 net79
*274 net8
*275 net80
*276 net81
*277 net82
*278 net83
*279 net84
*280 net85
*281 net86
*282 net87
*283 net88
*284 net89
*285 net9
*286 net90
*287 net91
*288 net92
*289 net93
*290 net94
*291 net95
*292 net96
*293 net97
*294 net98
*295 net99
*296 ANTENNA_0
*297 ANTENNA_1
*298 ANTENNA_10
*299 ANTENNA_11
*300 ANTENNA_12
*301 ANTENNA_13
*302 ANTENNA_14
*303 ANTENNA_15
*304 ANTENNA_16
*305 ANTENNA_17
*306 ANTENNA_18
*307 ANTENNA_19
*308 ANTENNA_2
*309 ANTENNA_20
*310 ANTENNA_21
*311 ANTENNA_22
*312 ANTENNA_23
*313 ANTENNA_24
*314 ANTENNA_25
*315 ANTENNA_26
*316 ANTENNA_27
*317 ANTENNA_28
*318 ANTENNA_29
*319 ANTENNA_3
*320 ANTENNA_30
*321 ANTENNA_31
*322 ANTENNA_32
*323 ANTENNA_33
*324 ANTENNA_34
*325 ANTENNA_35
*326 ANTENNA_36
*327 ANTENNA_37
*328 ANTENNA_38
*329 ANTENNA_39
*330 ANTENNA_4
*331 ANTENNA_40
*332 ANTENNA_41
*333 ANTENNA_42
*334 ANTENNA_43
*335 ANTENNA_44
*336 ANTENNA_45
*337 ANTENNA_46
*338 ANTENNA_47
*339 ANTENNA_48
*340 ANTENNA_49
*341 ANTENNA_5
*342 ANTENNA_50
*343 ANTENNA_51
*344 ANTENNA_52
*345 ANTENNA_53
*346 ANTENNA_54
*347 ANTENNA_55
*348 ANTENNA_6
*349 ANTENNA_7
*350 ANTENNA_8
*351 ANTENNA_9
*352 FILLER_0_1002
*353 FILLER_0_1012
*354 FILLER_0_102
*355 FILLER_0_1020
*356 FILLER_0_1030
*357 FILLER_0_1046
*358 FILLER_0_1059
*359 FILLER_0_1063
*360 FILLER_0_1074
*361 FILLER_0_108
*362 FILLER_0_1087
*363 FILLER_0_1091
*364 FILLER_0_1102
*365 FILLER_0_1115
*366 FILLER_0_1119
*367 FILLER_0_1124
*368 FILLER_0_113
*369 FILLER_0_1139
*370 FILLER_0_1147
*371 FILLER_0_1149
*372 FILLER_0_1153
*373 FILLER_0_1163
*374 FILLER_0_1167
*375 FILLER_0_1172
*376 FILLER_0_1186
*377 FILLER_0_119
*378 FILLER_0_1193
*379 FILLER_0_1198
*380 FILLER_0_1202
*381 FILLER_0_1214
*382 FILLER_0_1218
*383 FILLER_0_1228
*384 FILLER_0_1233
*385 FILLER_0_124
*386 FILLER_0_1246
*387 FILLER_0_1250
*388 FILLER_0_1261
*389 FILLER_0_1273
*390 FILLER_0_136
*391 FILLER_0_145
*392 FILLER_0_15
*393 FILLER_0_157
*394 FILLER_0_165
*395 FILLER_0_175
*396 FILLER_0_181
*397 FILLER_0_188
*398 FILLER_0_203
*399 FILLER_0_207
*400 FILLER_0_211
*401 FILLER_0_219
*402 FILLER_0_223
*403 FILLER_0_225
*404 FILLER_0_235
*405 FILLER_0_247
*406 FILLER_0_251
*407 FILLER_0_259
*408 FILLER_0_269
*409 FILLER_0_27
*410 FILLER_0_277
*411 FILLER_0_287
*412 FILLER_0_297
*413 FILLER_0_305
*414 FILLER_0_315
*415 FILLER_0_321
*416 FILLER_0_328
*417 FILLER_0_33
*418 FILLER_0_343
*419 FILLER_0_347
*420 FILLER_0_351
*421 FILLER_0_359
*422 FILLER_0_363
*423 FILLER_0_365
*424 FILLER_0_375
*425 FILLER_0_387
*426 FILLER_0_391
*427 FILLER_0_399
*428 FILLER_0_409
*429 FILLER_0_41
*430 FILLER_0_417
*431 FILLER_0_427
*432 FILLER_0_437
*433 FILLER_0_445
*434 FILLER_0_455
*435 FILLER_0_46
*436 FILLER_0_467
*437 FILLER_0_475
*438 FILLER_0_483
*439 FILLER_0_491
*440 FILLER_0_498
*441 FILLER_0_505
*442 FILLER_0_514
*443 FILLER_0_528
*444 FILLER_0_533
*445 FILLER_0_54
*446 FILLER_0_545
*447 FILLER_0_557
*448 FILLER_0_567
*449 FILLER_0_57
*450 FILLER_0_577
*451 FILLER_0_585
*452 FILLER_0_589
*453 FILLER_0_595
*454 FILLER_0_599
*455 FILLER_0_607
*456 FILLER_0_611
*457 FILLER_0_615
*458 FILLER_0_62
*459 FILLER_0_623
*460 FILLER_0_631
*461 FILLER_0_640
*462 FILLER_0_645
*463 FILLER_0_649
*464 FILLER_0_656
*465 FILLER_0_66
*466 FILLER_0_662
*467 FILLER_0_667
*468 FILLER_0_671
*469 FILLER_0_679
*470 FILLER_0_689
*471 FILLER_0_694
*472 FILLER_0_698
*473 FILLER_0_7
*474 FILLER_0_707
*475 FILLER_0_71
*476 FILLER_0_711
*477 FILLER_0_718
*478 FILLER_0_722
*479 FILLER_0_735
*480 FILLER_0_739
*481 FILLER_0_749
*482 FILLER_0_753
*483 FILLER_0_757
*484 FILLER_0_765
*485 FILLER_0_77
*486 FILLER_0_773
*487 FILLER_0_780
*488 FILLER_0_785
*489 FILLER_0_791
*490 FILLER_0_808
*491 FILLER_0_822
*492 FILLER_0_826
*493 FILLER_0_83
*494 FILLER_0_836
*495 FILLER_0_841
*496 FILLER_0_85
*497 FILLER_0_852
*498 FILLER_0_859
*499 FILLER_0_863
*500 FILLER_0_866
*501 FILLER_0_878
*502 FILLER_0_882
*503 FILLER_0_895
*504 FILLER_0_906
*505 FILLER_0_919
*506 FILLER_0_923
*507 FILLER_0_93
*508 FILLER_0_934
*509 FILLER_0_938
*510 FILLER_0_948
*511 FILLER_0_962
*512 FILLER_0_966
*513 FILLER_0_97
*514 FILLER_0_976
*515 FILLER_0_981
*516 FILLER_0_992
*517 FILLER_10_1005
*518 FILLER_10_1017
*519 FILLER_10_1029
*520 FILLER_10_1035
*521 FILLER_10_1037
*522 FILLER_10_1049
*523 FILLER_10_1061
*524 FILLER_10_1073
*525 FILLER_10_1085
*526 FILLER_10_109
*527 FILLER_10_1091
*528 FILLER_10_1093
*529 FILLER_10_1105
*530 FILLER_10_1117
*531 FILLER_10_1129
*532 FILLER_10_1141
*533 FILLER_10_1147
*534 FILLER_10_1149
*535 FILLER_10_1161
*536 FILLER_10_1173
*537 FILLER_10_1185
*538 FILLER_10_1197
*539 FILLER_10_1203
*540 FILLER_10_1205
*541 FILLER_10_121
*542 FILLER_10_1217
*543 FILLER_10_1229
*544 FILLER_10_1241
*545 FILLER_10_1253
*546 FILLER_10_1259
*547 FILLER_10_1261
*548 FILLER_10_1273
*549 FILLER_10_133
*550 FILLER_10_139
*551 FILLER_10_141
*552 FILLER_10_15
*553 FILLER_10_153
*554 FILLER_10_165
*555 FILLER_10_177
*556 FILLER_10_189
*557 FILLER_10_195
*558 FILLER_10_197
*559 FILLER_10_209
*560 FILLER_10_221
*561 FILLER_10_233
*562 FILLER_10_245
*563 FILLER_10_251
*564 FILLER_10_253
*565 FILLER_10_265
*566 FILLER_10_27
*567 FILLER_10_277
*568 FILLER_10_289
*569 FILLER_10_29
*570 FILLER_10_3
*571 FILLER_10_301
*572 FILLER_10_307
*573 FILLER_10_309
*574 FILLER_10_321
*575 FILLER_10_333
*576 FILLER_10_345
*577 FILLER_10_357
*578 FILLER_10_363
*579 FILLER_10_365
*580 FILLER_10_377
*581 FILLER_10_389
*582 FILLER_10_401
*583 FILLER_10_41
*584 FILLER_10_413
*585 FILLER_10_419
*586 FILLER_10_421
*587 FILLER_10_433
*588 FILLER_10_445
*589 FILLER_10_457
*590 FILLER_10_469
*591 FILLER_10_475
*592 FILLER_10_477
*593 FILLER_10_489
*594 FILLER_10_501
*595 FILLER_10_513
*596 FILLER_10_525
*597 FILLER_10_53
*598 FILLER_10_531
*599 FILLER_10_533
*600 FILLER_10_545
*601 FILLER_10_557
*602 FILLER_10_569
*603 FILLER_10_581
*604 FILLER_10_587
*605 FILLER_10_589
*606 FILLER_10_601
*607 FILLER_10_613
*608 FILLER_10_625
*609 FILLER_10_637
*610 FILLER_10_643
*611 FILLER_10_645
*612 FILLER_10_65
*613 FILLER_10_657
*614 FILLER_10_669
*615 FILLER_10_681
*616 FILLER_10_693
*617 FILLER_10_699
*618 FILLER_10_701
*619 FILLER_10_713
*620 FILLER_10_725
*621 FILLER_10_737
*622 FILLER_10_749
*623 FILLER_10_755
*624 FILLER_10_757
*625 FILLER_10_769
*626 FILLER_10_77
*627 FILLER_10_781
*628 FILLER_10_793
*629 FILLER_10_805
*630 FILLER_10_811
*631 FILLER_10_813
*632 FILLER_10_825
*633 FILLER_10_83
*634 FILLER_10_837
*635 FILLER_10_849
*636 FILLER_10_85
*637 FILLER_10_861
*638 FILLER_10_867
*639 FILLER_10_869
*640 FILLER_10_881
*641 FILLER_10_893
*642 FILLER_10_905
*643 FILLER_10_917
*644 FILLER_10_923
*645 FILLER_10_925
*646 FILLER_10_937
*647 FILLER_10_949
*648 FILLER_10_961
*649 FILLER_10_97
*650 FILLER_10_973
*651 FILLER_10_979
*652 FILLER_10_981
*653 FILLER_10_993
*654 FILLER_11_1001
*655 FILLER_11_1007
*656 FILLER_11_1009
*657 FILLER_11_1021
*658 FILLER_11_1033
*659 FILLER_11_1045
*660 FILLER_11_105
*661 FILLER_11_1057
*662 FILLER_11_1063
*663 FILLER_11_1065
*664 FILLER_11_1077
*665 FILLER_11_1089
*666 FILLER_11_1101
*667 FILLER_11_111
*668 FILLER_11_1113
*669 FILLER_11_1119
*670 FILLER_11_1121
*671 FILLER_11_113
*672 FILLER_11_1133
*673 FILLER_11_1145
*674 FILLER_11_1157
*675 FILLER_11_1169
*676 FILLER_11_1175
*677 FILLER_11_1177
*678 FILLER_11_1189
*679 FILLER_11_1201
*680 FILLER_11_1213
*681 FILLER_11_1225
*682 FILLER_11_1231
*683 FILLER_11_1233
*684 FILLER_11_1245
*685 FILLER_11_125
*686 FILLER_11_1257
*687 FILLER_11_1269
*688 FILLER_11_137
*689 FILLER_11_149
*690 FILLER_11_15
*691 FILLER_11_161
*692 FILLER_11_167
*693 FILLER_11_169
*694 FILLER_11_181
*695 FILLER_11_193
*696 FILLER_11_205
*697 FILLER_11_217
*698 FILLER_11_223
*699 FILLER_11_225
*700 FILLER_11_237
*701 FILLER_11_249
*702 FILLER_11_261
*703 FILLER_11_27
*704 FILLER_11_273
*705 FILLER_11_279
*706 FILLER_11_281
*707 FILLER_11_293
*708 FILLER_11_3
*709 FILLER_11_305
*710 FILLER_11_317
*711 FILLER_11_329
*712 FILLER_11_335
*713 FILLER_11_337
*714 FILLER_11_349
*715 FILLER_11_361
*716 FILLER_11_373
*717 FILLER_11_385
*718 FILLER_11_39
*719 FILLER_11_391
*720 FILLER_11_393
*721 FILLER_11_405
*722 FILLER_11_417
*723 FILLER_11_429
*724 FILLER_11_441
*725 FILLER_11_447
*726 FILLER_11_449
*727 FILLER_11_461
*728 FILLER_11_473
*729 FILLER_11_485
*730 FILLER_11_497
*731 FILLER_11_503
*732 FILLER_11_505
*733 FILLER_11_51
*734 FILLER_11_517
*735 FILLER_11_529
*736 FILLER_11_541
*737 FILLER_11_55
*738 FILLER_11_553
*739 FILLER_11_559
*740 FILLER_11_561
*741 FILLER_11_57
*742 FILLER_11_573
*743 FILLER_11_585
*744 FILLER_11_597
*745 FILLER_11_609
*746 FILLER_11_615
*747 FILLER_11_617
*748 FILLER_11_629
*749 FILLER_11_641
*750 FILLER_11_653
*751 FILLER_11_665
*752 FILLER_11_671
*753 FILLER_11_673
*754 FILLER_11_685
*755 FILLER_11_69
*756 FILLER_11_697
*757 FILLER_11_709
*758 FILLER_11_721
*759 FILLER_11_727
*760 FILLER_11_729
*761 FILLER_11_741
*762 FILLER_11_753
*763 FILLER_11_765
*764 FILLER_11_777
*765 FILLER_11_783
*766 FILLER_11_785
*767 FILLER_11_797
*768 FILLER_11_809
*769 FILLER_11_81
*770 FILLER_11_821
*771 FILLER_11_833
*772 FILLER_11_839
*773 FILLER_11_841
*774 FILLER_11_853
*775 FILLER_11_865
*776 FILLER_11_877
*777 FILLER_11_889
*778 FILLER_11_895
*779 FILLER_11_897
*780 FILLER_11_909
*781 FILLER_11_921
*782 FILLER_11_93
*783 FILLER_11_933
*784 FILLER_11_945
*785 FILLER_11_951
*786 FILLER_11_953
*787 FILLER_11_965
*788 FILLER_11_977
*789 FILLER_11_989
*790 FILLER_12_1005
*791 FILLER_12_1017
*792 FILLER_12_1029
*793 FILLER_12_1035
*794 FILLER_12_1037
*795 FILLER_12_1049
*796 FILLER_12_1061
*797 FILLER_12_1073
*798 FILLER_12_1085
*799 FILLER_12_109
*800 FILLER_12_1091
*801 FILLER_12_1093
*802 FILLER_12_1105
*803 FILLER_12_1117
*804 FILLER_12_1129
*805 FILLER_12_1141
*806 FILLER_12_1147
*807 FILLER_12_1149
*808 FILLER_12_1161
*809 FILLER_12_1173
*810 FILLER_12_1185
*811 FILLER_12_1197
*812 FILLER_12_1203
*813 FILLER_12_1205
*814 FILLER_12_121
*815 FILLER_12_1217
*816 FILLER_12_1229
*817 FILLER_12_1241
*818 FILLER_12_1253
*819 FILLER_12_1259
*820 FILLER_12_1261
*821 FILLER_12_1273
*822 FILLER_12_133
*823 FILLER_12_139
*824 FILLER_12_141
*825 FILLER_12_15
*826 FILLER_12_153
*827 FILLER_12_165
*828 FILLER_12_177
*829 FILLER_12_189
*830 FILLER_12_195
*831 FILLER_12_197
*832 FILLER_12_209
*833 FILLER_12_221
*834 FILLER_12_233
*835 FILLER_12_245
*836 FILLER_12_251
*837 FILLER_12_253
*838 FILLER_12_265
*839 FILLER_12_27
*840 FILLER_12_277
*841 FILLER_12_289
*842 FILLER_12_29
*843 FILLER_12_3
*844 FILLER_12_301
*845 FILLER_12_307
*846 FILLER_12_309
*847 FILLER_12_321
*848 FILLER_12_333
*849 FILLER_12_345
*850 FILLER_12_357
*851 FILLER_12_363
*852 FILLER_12_365
*853 FILLER_12_377
*854 FILLER_12_389
*855 FILLER_12_401
*856 FILLER_12_41
*857 FILLER_12_413
*858 FILLER_12_419
*859 FILLER_12_421
*860 FILLER_12_433
*861 FILLER_12_445
*862 FILLER_12_457
*863 FILLER_12_469
*864 FILLER_12_475
*865 FILLER_12_477
*866 FILLER_12_489
*867 FILLER_12_501
*868 FILLER_12_513
*869 FILLER_12_525
*870 FILLER_12_53
*871 FILLER_12_531
*872 FILLER_12_533
*873 FILLER_12_545
*874 FILLER_12_557
*875 FILLER_12_569
*876 FILLER_12_581
*877 FILLER_12_587
*878 FILLER_12_589
*879 FILLER_12_601
*880 FILLER_12_613
*881 FILLER_12_625
*882 FILLER_12_637
*883 FILLER_12_643
*884 FILLER_12_645
*885 FILLER_12_65
*886 FILLER_12_657
*887 FILLER_12_669
*888 FILLER_12_681
*889 FILLER_12_693
*890 FILLER_12_699
*891 FILLER_12_701
*892 FILLER_12_713
*893 FILLER_12_725
*894 FILLER_12_737
*895 FILLER_12_749
*896 FILLER_12_755
*897 FILLER_12_757
*898 FILLER_12_769
*899 FILLER_12_77
*900 FILLER_12_781
*901 FILLER_12_793
*902 FILLER_12_805
*903 FILLER_12_811
*904 FILLER_12_813
*905 FILLER_12_825
*906 FILLER_12_83
*907 FILLER_12_837
*908 FILLER_12_849
*909 FILLER_12_85
*910 FILLER_12_861
*911 FILLER_12_867
*912 FILLER_12_869
*913 FILLER_12_881
*914 FILLER_12_893
*915 FILLER_12_905
*916 FILLER_12_917
*917 FILLER_12_923
*918 FILLER_12_925
*919 FILLER_12_937
*920 FILLER_12_949
*921 FILLER_12_961
*922 FILLER_12_97
*923 FILLER_12_973
*924 FILLER_12_979
*925 FILLER_12_981
*926 FILLER_12_993
*927 FILLER_13_1001
*928 FILLER_13_1007
*929 FILLER_13_1009
*930 FILLER_13_1021
*931 FILLER_13_1033
*932 FILLER_13_1045
*933 FILLER_13_105
*934 FILLER_13_1057
*935 FILLER_13_1063
*936 FILLER_13_1065
*937 FILLER_13_1077
*938 FILLER_13_1089
*939 FILLER_13_1101
*940 FILLER_13_111
*941 FILLER_13_1113
*942 FILLER_13_1119
*943 FILLER_13_1121
*944 FILLER_13_113
*945 FILLER_13_1133
*946 FILLER_13_1145
*947 FILLER_13_1157
*948 FILLER_13_1169
*949 FILLER_13_1175
*950 FILLER_13_1177
*951 FILLER_13_1189
*952 FILLER_13_1201
*953 FILLER_13_1213
*954 FILLER_13_1225
*955 FILLER_13_1231
*956 FILLER_13_1233
*957 FILLER_13_1245
*958 FILLER_13_125
*959 FILLER_13_1257
*960 FILLER_13_1269
*961 FILLER_13_137
*962 FILLER_13_149
*963 FILLER_13_15
*964 FILLER_13_161
*965 FILLER_13_167
*966 FILLER_13_169
*967 FILLER_13_181
*968 FILLER_13_193
*969 FILLER_13_205
*970 FILLER_13_217
*971 FILLER_13_223
*972 FILLER_13_225
*973 FILLER_13_237
*974 FILLER_13_249
*975 FILLER_13_261
*976 FILLER_13_27
*977 FILLER_13_273
*978 FILLER_13_279
*979 FILLER_13_281
*980 FILLER_13_293
*981 FILLER_13_3
*982 FILLER_13_305
*983 FILLER_13_317
*984 FILLER_13_329
*985 FILLER_13_335
*986 FILLER_13_337
*987 FILLER_13_349
*988 FILLER_13_361
*989 FILLER_13_373
*990 FILLER_13_385
*991 FILLER_13_39
*992 FILLER_13_391
*993 FILLER_13_393
*994 FILLER_13_405
*995 FILLER_13_417
*996 FILLER_13_429
*997 FILLER_13_441
*998 FILLER_13_447
*999 FILLER_13_449
*1000 FILLER_13_461
*1001 FILLER_13_473
*1002 FILLER_13_485
*1003 FILLER_13_497
*1004 FILLER_13_503
*1005 FILLER_13_505
*1006 FILLER_13_51
*1007 FILLER_13_517
*1008 FILLER_13_529
*1009 FILLER_13_541
*1010 FILLER_13_55
*1011 FILLER_13_553
*1012 FILLER_13_559
*1013 FILLER_13_561
*1014 FILLER_13_57
*1015 FILLER_13_573
*1016 FILLER_13_585
*1017 FILLER_13_597
*1018 FILLER_13_609
*1019 FILLER_13_615
*1020 FILLER_13_617
*1021 FILLER_13_629
*1022 FILLER_13_641
*1023 FILLER_13_653
*1024 FILLER_13_665
*1025 FILLER_13_671
*1026 FILLER_13_673
*1027 FILLER_13_685
*1028 FILLER_13_69
*1029 FILLER_13_697
*1030 FILLER_13_709
*1031 FILLER_13_721
*1032 FILLER_13_727
*1033 FILLER_13_729
*1034 FILLER_13_741
*1035 FILLER_13_753
*1036 FILLER_13_765
*1037 FILLER_13_777
*1038 FILLER_13_783
*1039 FILLER_13_785
*1040 FILLER_13_797
*1041 FILLER_13_809
*1042 FILLER_13_81
*1043 FILLER_13_821
*1044 FILLER_13_833
*1045 FILLER_13_839
*1046 FILLER_13_841
*1047 FILLER_13_853
*1048 FILLER_13_865
*1049 FILLER_13_877
*1050 FILLER_13_889
*1051 FILLER_13_895
*1052 FILLER_13_897
*1053 FILLER_13_909
*1054 FILLER_13_921
*1055 FILLER_13_93
*1056 FILLER_13_933
*1057 FILLER_13_945
*1058 FILLER_13_951
*1059 FILLER_13_953
*1060 FILLER_13_965
*1061 FILLER_13_977
*1062 FILLER_13_989
*1063 FILLER_14_1005
*1064 FILLER_14_1017
*1065 FILLER_14_1029
*1066 FILLER_14_1035
*1067 FILLER_14_1037
*1068 FILLER_14_1049
*1069 FILLER_14_1061
*1070 FILLER_14_1073
*1071 FILLER_14_1085
*1072 FILLER_14_109
*1073 FILLER_14_1091
*1074 FILLER_14_1093
*1075 FILLER_14_1105
*1076 FILLER_14_1117
*1077 FILLER_14_1129
*1078 FILLER_14_1141
*1079 FILLER_14_1147
*1080 FILLER_14_1149
*1081 FILLER_14_1161
*1082 FILLER_14_1173
*1083 FILLER_14_1185
*1084 FILLER_14_1197
*1085 FILLER_14_1203
*1086 FILLER_14_1205
*1087 FILLER_14_121
*1088 FILLER_14_1217
*1089 FILLER_14_1229
*1090 FILLER_14_1241
*1091 FILLER_14_1253
*1092 FILLER_14_1259
*1093 FILLER_14_1261
*1094 FILLER_14_1273
*1095 FILLER_14_133
*1096 FILLER_14_139
*1097 FILLER_14_141
*1098 FILLER_14_15
*1099 FILLER_14_153
*1100 FILLER_14_165
*1101 FILLER_14_177
*1102 FILLER_14_189
*1103 FILLER_14_195
*1104 FILLER_14_197
*1105 FILLER_14_209
*1106 FILLER_14_221
*1107 FILLER_14_233
*1108 FILLER_14_245
*1109 FILLER_14_251
*1110 FILLER_14_253
*1111 FILLER_14_265
*1112 FILLER_14_27
*1113 FILLER_14_277
*1114 FILLER_14_289
*1115 FILLER_14_29
*1116 FILLER_14_3
*1117 FILLER_14_301
*1118 FILLER_14_307
*1119 FILLER_14_309
*1120 FILLER_14_321
*1121 FILLER_14_333
*1122 FILLER_14_345
*1123 FILLER_14_357
*1124 FILLER_14_363
*1125 FILLER_14_365
*1126 FILLER_14_377
*1127 FILLER_14_389
*1128 FILLER_14_401
*1129 FILLER_14_41
*1130 FILLER_14_413
*1131 FILLER_14_419
*1132 FILLER_14_421
*1133 FILLER_14_433
*1134 FILLER_14_445
*1135 FILLER_14_457
*1136 FILLER_14_469
*1137 FILLER_14_475
*1138 FILLER_14_477
*1139 FILLER_14_489
*1140 FILLER_14_501
*1141 FILLER_14_513
*1142 FILLER_14_525
*1143 FILLER_14_53
*1144 FILLER_14_531
*1145 FILLER_14_533
*1146 FILLER_14_545
*1147 FILLER_14_557
*1148 FILLER_14_569
*1149 FILLER_14_581
*1150 FILLER_14_587
*1151 FILLER_14_589
*1152 FILLER_14_601
*1153 FILLER_14_613
*1154 FILLER_14_625
*1155 FILLER_14_637
*1156 FILLER_14_643
*1157 FILLER_14_645
*1158 FILLER_14_65
*1159 FILLER_14_657
*1160 FILLER_14_669
*1161 FILLER_14_681
*1162 FILLER_14_693
*1163 FILLER_14_699
*1164 FILLER_14_701
*1165 FILLER_14_713
*1166 FILLER_14_725
*1167 FILLER_14_737
*1168 FILLER_14_749
*1169 FILLER_14_755
*1170 FILLER_14_757
*1171 FILLER_14_769
*1172 FILLER_14_77
*1173 FILLER_14_781
*1174 FILLER_14_793
*1175 FILLER_14_805
*1176 FILLER_14_811
*1177 FILLER_14_817
*1178 FILLER_14_829
*1179 FILLER_14_83
*1180 FILLER_14_841
*1181 FILLER_14_85
*1182 FILLER_14_853
*1183 FILLER_14_865
*1184 FILLER_14_869
*1185 FILLER_14_881
*1186 FILLER_14_893
*1187 FILLER_14_905
*1188 FILLER_14_917
*1189 FILLER_14_923
*1190 FILLER_14_925
*1191 FILLER_14_937
*1192 FILLER_14_949
*1193 FILLER_14_961
*1194 FILLER_14_97
*1195 FILLER_14_973
*1196 FILLER_14_979
*1197 FILLER_14_981
*1198 FILLER_14_993
*1199 FILLER_15_1001
*1200 FILLER_15_1007
*1201 FILLER_15_1009
*1202 FILLER_15_1021
*1203 FILLER_15_1033
*1204 FILLER_15_1045
*1205 FILLER_15_105
*1206 FILLER_15_1057
*1207 FILLER_15_1063
*1208 FILLER_15_1065
*1209 FILLER_15_1077
*1210 FILLER_15_1089
*1211 FILLER_15_1101
*1212 FILLER_15_111
*1213 FILLER_15_1113
*1214 FILLER_15_1119
*1215 FILLER_15_1121
*1216 FILLER_15_113
*1217 FILLER_15_1133
*1218 FILLER_15_1145
*1219 FILLER_15_1157
*1220 FILLER_15_1169
*1221 FILLER_15_1175
*1222 FILLER_15_1177
*1223 FILLER_15_1189
*1224 FILLER_15_1201
*1225 FILLER_15_1213
*1226 FILLER_15_1225
*1227 FILLER_15_1231
*1228 FILLER_15_1233
*1229 FILLER_15_1245
*1230 FILLER_15_125
*1231 FILLER_15_1257
*1232 FILLER_15_1269
*1233 FILLER_15_137
*1234 FILLER_15_149
*1235 FILLER_15_15
*1236 FILLER_15_161
*1237 FILLER_15_167
*1238 FILLER_15_169
*1239 FILLER_15_181
*1240 FILLER_15_193
*1241 FILLER_15_205
*1242 FILLER_15_217
*1243 FILLER_15_223
*1244 FILLER_15_225
*1245 FILLER_15_237
*1246 FILLER_15_249
*1247 FILLER_15_261
*1248 FILLER_15_27
*1249 FILLER_15_273
*1250 FILLER_15_279
*1251 FILLER_15_281
*1252 FILLER_15_293
*1253 FILLER_15_3
*1254 FILLER_15_305
*1255 FILLER_15_317
*1256 FILLER_15_329
*1257 FILLER_15_335
*1258 FILLER_15_337
*1259 FILLER_15_349
*1260 FILLER_15_361
*1261 FILLER_15_373
*1262 FILLER_15_385
*1263 FILLER_15_39
*1264 FILLER_15_391
*1265 FILLER_15_393
*1266 FILLER_15_405
*1267 FILLER_15_417
*1268 FILLER_15_429
*1269 FILLER_15_441
*1270 FILLER_15_447
*1271 FILLER_15_449
*1272 FILLER_15_461
*1273 FILLER_15_473
*1274 FILLER_15_485
*1275 FILLER_15_497
*1276 FILLER_15_503
*1277 FILLER_15_505
*1278 FILLER_15_51
*1279 FILLER_15_517
*1280 FILLER_15_529
*1281 FILLER_15_541
*1282 FILLER_15_55
*1283 FILLER_15_553
*1284 FILLER_15_559
*1285 FILLER_15_561
*1286 FILLER_15_57
*1287 FILLER_15_573
*1288 FILLER_15_585
*1289 FILLER_15_597
*1290 FILLER_15_609
*1291 FILLER_15_615
*1292 FILLER_15_617
*1293 FILLER_15_629
*1294 FILLER_15_641
*1295 FILLER_15_653
*1296 FILLER_15_665
*1297 FILLER_15_671
*1298 FILLER_15_673
*1299 FILLER_15_685
*1300 FILLER_15_69
*1301 FILLER_15_697
*1302 FILLER_15_709
*1303 FILLER_15_721
*1304 FILLER_15_727
*1305 FILLER_15_729
*1306 FILLER_15_741
*1307 FILLER_15_753
*1308 FILLER_15_765
*1309 FILLER_15_777
*1310 FILLER_15_783
*1311 FILLER_15_785
*1312 FILLER_15_797
*1313 FILLER_15_809
*1314 FILLER_15_81
*1315 FILLER_15_821
*1316 FILLER_15_833
*1317 FILLER_15_839
*1318 FILLER_15_841
*1319 FILLER_15_853
*1320 FILLER_15_865
*1321 FILLER_15_877
*1322 FILLER_15_889
*1323 FILLER_15_895
*1324 FILLER_15_897
*1325 FILLER_15_909
*1326 FILLER_15_921
*1327 FILLER_15_93
*1328 FILLER_15_933
*1329 FILLER_15_945
*1330 FILLER_15_951
*1331 FILLER_15_953
*1332 FILLER_15_965
*1333 FILLER_15_977
*1334 FILLER_15_989
*1335 FILLER_16_1005
*1336 FILLER_16_1017
*1337 FILLER_16_1029
*1338 FILLER_16_1035
*1339 FILLER_16_1037
*1340 FILLER_16_1049
*1341 FILLER_16_1061
*1342 FILLER_16_1073
*1343 FILLER_16_1085
*1344 FILLER_16_109
*1345 FILLER_16_1091
*1346 FILLER_16_1093
*1347 FILLER_16_1105
*1348 FILLER_16_1117
*1349 FILLER_16_1129
*1350 FILLER_16_1141
*1351 FILLER_16_1147
*1352 FILLER_16_1149
*1353 FILLER_16_1161
*1354 FILLER_16_1173
*1355 FILLER_16_1185
*1356 FILLER_16_1197
*1357 FILLER_16_1203
*1358 FILLER_16_1205
*1359 FILLER_16_121
*1360 FILLER_16_1217
*1361 FILLER_16_1229
*1362 FILLER_16_1241
*1363 FILLER_16_1253
*1364 FILLER_16_1259
*1365 FILLER_16_1261
*1366 FILLER_16_1267
*1367 FILLER_16_1273
*1368 FILLER_16_133
*1369 FILLER_16_139
*1370 FILLER_16_141
*1371 FILLER_16_15
*1372 FILLER_16_153
*1373 FILLER_16_165
*1374 FILLER_16_177
*1375 FILLER_16_189
*1376 FILLER_16_195
*1377 FILLER_16_197
*1378 FILLER_16_209
*1379 FILLER_16_221
*1380 FILLER_16_233
*1381 FILLER_16_245
*1382 FILLER_16_251
*1383 FILLER_16_253
*1384 FILLER_16_265
*1385 FILLER_16_27
*1386 FILLER_16_277
*1387 FILLER_16_289
*1388 FILLER_16_29
*1389 FILLER_16_3
*1390 FILLER_16_301
*1391 FILLER_16_307
*1392 FILLER_16_309
*1393 FILLER_16_321
*1394 FILLER_16_333
*1395 FILLER_16_345
*1396 FILLER_16_357
*1397 FILLER_16_363
*1398 FILLER_16_365
*1399 FILLER_16_377
*1400 FILLER_16_389
*1401 FILLER_16_401
*1402 FILLER_16_41
*1403 FILLER_16_413
*1404 FILLER_16_419
*1405 FILLER_16_421
*1406 FILLER_16_433
*1407 FILLER_16_445
*1408 FILLER_16_457
*1409 FILLER_16_469
*1410 FILLER_16_475
*1411 FILLER_16_477
*1412 FILLER_16_489
*1413 FILLER_16_501
*1414 FILLER_16_513
*1415 FILLER_16_525
*1416 FILLER_16_53
*1417 FILLER_16_531
*1418 FILLER_16_533
*1419 FILLER_16_545
*1420 FILLER_16_557
*1421 FILLER_16_569
*1422 FILLER_16_581
*1423 FILLER_16_587
*1424 FILLER_16_589
*1425 FILLER_16_601
*1426 FILLER_16_613
*1427 FILLER_16_625
*1428 FILLER_16_637
*1429 FILLER_16_643
*1430 FILLER_16_645
*1431 FILLER_16_65
*1432 FILLER_16_657
*1433 FILLER_16_669
*1434 FILLER_16_681
*1435 FILLER_16_693
*1436 FILLER_16_699
*1437 FILLER_16_701
*1438 FILLER_16_713
*1439 FILLER_16_725
*1440 FILLER_16_737
*1441 FILLER_16_749
*1442 FILLER_16_755
*1443 FILLER_16_757
*1444 FILLER_16_769
*1445 FILLER_16_77
*1446 FILLER_16_781
*1447 FILLER_16_793
*1448 FILLER_16_805
*1449 FILLER_16_811
*1450 FILLER_16_813
*1451 FILLER_16_825
*1452 FILLER_16_83
*1453 FILLER_16_837
*1454 FILLER_16_849
*1455 FILLER_16_85
*1456 FILLER_16_861
*1457 FILLER_16_867
*1458 FILLER_16_869
*1459 FILLER_16_881
*1460 FILLER_16_893
*1461 FILLER_16_905
*1462 FILLER_16_917
*1463 FILLER_16_923
*1464 FILLER_16_925
*1465 FILLER_16_937
*1466 FILLER_16_949
*1467 FILLER_16_961
*1468 FILLER_16_97
*1469 FILLER_16_973
*1470 FILLER_16_979
*1471 FILLER_16_981
*1472 FILLER_16_993
*1473 FILLER_17_1001
*1474 FILLER_17_1007
*1475 FILLER_17_1009
*1476 FILLER_17_1021
*1477 FILLER_17_1033
*1478 FILLER_17_1045
*1479 FILLER_17_105
*1480 FILLER_17_1057
*1481 FILLER_17_1063
*1482 FILLER_17_1065
*1483 FILLER_17_1077
*1484 FILLER_17_1089
*1485 FILLER_17_1101
*1486 FILLER_17_111
*1487 FILLER_17_1113
*1488 FILLER_17_1119
*1489 FILLER_17_1121
*1490 FILLER_17_113
*1491 FILLER_17_1133
*1492 FILLER_17_1145
*1493 FILLER_17_1157
*1494 FILLER_17_1169
*1495 FILLER_17_1175
*1496 FILLER_17_1177
*1497 FILLER_17_1189
*1498 FILLER_17_1201
*1499 FILLER_17_1213
*1500 FILLER_17_1225
*1501 FILLER_17_1231
*1502 FILLER_17_1233
*1503 FILLER_17_1245
*1504 FILLER_17_125
*1505 FILLER_17_1257
*1506 FILLER_17_1267
*1507 FILLER_17_1273
*1508 FILLER_17_137
*1509 FILLER_17_149
*1510 FILLER_17_15
*1511 FILLER_17_161
*1512 FILLER_17_167
*1513 FILLER_17_169
*1514 FILLER_17_181
*1515 FILLER_17_193
*1516 FILLER_17_205
*1517 FILLER_17_217
*1518 FILLER_17_223
*1519 FILLER_17_225
*1520 FILLER_17_237
*1521 FILLER_17_249
*1522 FILLER_17_261
*1523 FILLER_17_27
*1524 FILLER_17_273
*1525 FILLER_17_279
*1526 FILLER_17_281
*1527 FILLER_17_293
*1528 FILLER_17_3
*1529 FILLER_17_305
*1530 FILLER_17_317
*1531 FILLER_17_329
*1532 FILLER_17_335
*1533 FILLER_17_337
*1534 FILLER_17_349
*1535 FILLER_17_361
*1536 FILLER_17_373
*1537 FILLER_17_385
*1538 FILLER_17_39
*1539 FILLER_17_391
*1540 FILLER_17_393
*1541 FILLER_17_405
*1542 FILLER_17_417
*1543 FILLER_17_429
*1544 FILLER_17_441
*1545 FILLER_17_447
*1546 FILLER_17_449
*1547 FILLER_17_461
*1548 FILLER_17_473
*1549 FILLER_17_485
*1550 FILLER_17_497
*1551 FILLER_17_503
*1552 FILLER_17_505
*1553 FILLER_17_51
*1554 FILLER_17_517
*1555 FILLER_17_529
*1556 FILLER_17_541
*1557 FILLER_17_55
*1558 FILLER_17_553
*1559 FILLER_17_559
*1560 FILLER_17_561
*1561 FILLER_17_57
*1562 FILLER_17_573
*1563 FILLER_17_585
*1564 FILLER_17_597
*1565 FILLER_17_609
*1566 FILLER_17_615
*1567 FILLER_17_617
*1568 FILLER_17_629
*1569 FILLER_17_641
*1570 FILLER_17_653
*1571 FILLER_17_665
*1572 FILLER_17_671
*1573 FILLER_17_673
*1574 FILLER_17_685
*1575 FILLER_17_69
*1576 FILLER_17_697
*1577 FILLER_17_709
*1578 FILLER_17_721
*1579 FILLER_17_727
*1580 FILLER_17_729
*1581 FILLER_17_741
*1582 FILLER_17_753
*1583 FILLER_17_765
*1584 FILLER_17_777
*1585 FILLER_17_783
*1586 FILLER_17_785
*1587 FILLER_17_797
*1588 FILLER_17_809
*1589 FILLER_17_81
*1590 FILLER_17_821
*1591 FILLER_17_833
*1592 FILLER_17_839
*1593 FILLER_17_841
*1594 FILLER_17_853
*1595 FILLER_17_865
*1596 FILLER_17_877
*1597 FILLER_17_889
*1598 FILLER_17_895
*1599 FILLER_17_897
*1600 FILLER_17_909
*1601 FILLER_17_921
*1602 FILLER_17_93
*1603 FILLER_17_933
*1604 FILLER_17_945
*1605 FILLER_17_951
*1606 FILLER_17_953
*1607 FILLER_17_965
*1608 FILLER_17_977
*1609 FILLER_17_989
*1610 FILLER_18_1005
*1611 FILLER_18_1017
*1612 FILLER_18_1029
*1613 FILLER_18_1035
*1614 FILLER_18_1037
*1615 FILLER_18_1049
*1616 FILLER_18_1061
*1617 FILLER_18_1073
*1618 FILLER_18_1085
*1619 FILLER_18_109
*1620 FILLER_18_1091
*1621 FILLER_18_1093
*1622 FILLER_18_1105
*1623 FILLER_18_1117
*1624 FILLER_18_1129
*1625 FILLER_18_1141
*1626 FILLER_18_1147
*1627 FILLER_18_1149
*1628 FILLER_18_1161
*1629 FILLER_18_1173
*1630 FILLER_18_1185