*SPEF "ieee 1481-1999"
*DESIGN "merge_memory"
*DATE "11:11:11 Fri 11 11, 1111"
*VENDOR "OpenRCX"
*PROGRAM "Parallel Extraction"
*VERSION "1.0"
*DESIGN_FLOW "NAME_SCOPE LOCAL" "PIN_CAP NONE"
*DIVIDER /
*DELIMITER :
*BUS_DELIMITER []
*T_UNIT 1 NS
*C_UNIT 1 PF
*R_UNIT 1 OHM
*L_UNIT 1 HENRY

*NAME_MAP
*1 addr[0]
*2 addr[1]
*3 addr[2]
*4 addr[3]
*5 addr[4]
*6 addr[5]
*7 addr[6]
*8 addr[7]
*9 addr[8]
*10 addr[9]
*11 addr_mem0[0]
*12 addr_mem0[1]
*13 addr_mem0[2]
*14 addr_mem0[3]
*15 addr_mem0[4]
*16 addr_mem0[5]
*17 addr_mem0[6]
*18 addr_mem0[7]
*19 addr_mem0[8]
*20 addr_mem1[0]
*21 addr_mem1[1]
*22 addr_mem1[2]
*23 addr_mem1[3]
*24 addr_mem1[4]
*25 addr_mem1[5]
*26 addr_mem1[6]
*27 addr_mem1[7]
*28 addr_mem1[8]
*29 csb
*30 csb_mem0
*31 csb_mem1
*32 dout[0]
*33 dout[10]
*34 dout[11]
*35 dout[12]
*36 dout[13]
*37 dout[14]
*38 dout[15]
*39 dout[16]
*40 dout[17]
*41 dout[18]
*42 dout[19]
*43 dout[1]
*44 dout[20]
*45 dout[21]
*46 dout[22]
*47 dout[23]
*48 dout[24]
*49 dout[25]
*50 dout[26]
*51 dout[27]
*52 dout[28]
*53 dout[29]
*54 dout[2]
*55 dout[30]
*56 dout[31]
*57 dout[3]
*58 dout[4]
*59 dout[5]
*60 dout[6]
*61 dout[7]
*62 dout[8]
*63 dout[9]
*64 dout_mem0[0]
*65 dout_mem0[10]
*66 dout_mem0[11]
*67 dout_mem0[12]
*68 dout_mem0[13]
*69 dout_mem0[14]
*70 dout_mem0[15]
*71 dout_mem0[16]
*72 dout_mem0[17]
*73 dout_mem0[18]
*74 dout_mem0[19]
*75 dout_mem0[1]
*76 dout_mem0[20]
*77 dout_mem0[21]
*78 dout_mem0[22]
*79 dout_mem0[23]
*80 dout_mem0[24]
*81 dout_mem0[25]
*82 dout_mem0[26]
*83 dout_mem0[27]
*84 dout_mem0[28]
*85 dout_mem0[29]
*86 dout_mem0[2]
*87 dout_mem0[30]
*88 dout_mem0[31]
*89 dout_mem0[3]
*90 dout_mem0[4]
*91 dout_mem0[5]
*92 dout_mem0[6]
*93 dout_mem0[7]
*94 dout_mem0[8]
*95 dout_mem0[9]
*96 dout_mem1[0]
*97 dout_mem1[10]
*98 dout_mem1[11]
*99 dout_mem1[12]
*100 dout_mem1[13]
*101 dout_mem1[14]
*102 dout_mem1[15]
*103 dout_mem1[16]
*104 dout_mem1[17]
*105 dout_mem1[18]
*106 dout_mem1[19]
*107 dout_mem1[1]
*108 dout_mem1[20]
*109 dout_mem1[21]
*110 dout_mem1[22]
*111 dout_mem1[23]
*112 dout_mem1[24]
*113 dout_mem1[25]
*114 dout_mem1[26]
*115 dout_mem1[27]
*116 dout_mem1[28]
*117 dout_mem1[29]
*118 dout_mem1[2]
*119 dout_mem1[30]
*120 dout_mem1[31]
*121 dout_mem1[3]
*122 dout_mem1[4]
*123 dout_mem1[5]
*124 dout_mem1[6]
*125 dout_mem1[7]
*126 dout_mem1[8]
*127 dout_mem1[9]
*130 _000_
*131 _001_
*132 _002_
*133 _003_
*134 _004_
*135 _005_
*136 _006_
*137 _007_
*138 _008_
*139 _009_
*140 _010_
*141 _011_
*142 _012_
*143 _013_
*144 _014_
*145 _015_
*146 _016_
*147 _017_
*148 _018_
*149 _019_
*150 _020_
*151 _021_
*152 _022_
*153 _023_
*154 _024_
*155 _025_
*156 _026_
*157 _027_
*158 _028_
*159 _029_
*160 _030_
*161 _031_
*162 _032_
*163 _033_
*164 _034_
*165 _035_
*166 _036_
*167 _037_
*168 _038_
*169 _039_
*170 _040_
*171 _041_
*172 _042_
*173 _043_
*174 _044_
*175 _045_
*176 _046_
*177 _047_
*178 _048_
*179 _049_
*180 _050_
*181 _051_
*182 _052_
*183 _053_
*184 _054_
*185 _055_
*186 _056_
*187 _057_
*188 _058_
*189 _059_
*190 _060_
*191 _061_
*192 _062_
*193 _063_
*194 net1
*195 net10
*196 net100
*197 net101
*198 net102
*199 net103
*200 net104
*201 net105
*202 net106
*203 net107
*204 net108
*205 net109
*206 net11
*207 net110
*208 net111
*209 net112
*210 net113
*211 net114
*212 net115
*213 net116
*214 net117
*215 net118
*216 net119
*217 net12
*218 net120
*219 net121
*220 net122
*221 net123
*222 net124
*223 net125
*224 net126
*225 net127
*226 net13
*227 net14
*228 net15
*229 net16
*230 net17
*231 net18
*232 net19
*233 net2
*234 net20
*235 net21
*236 net22
*237 net23
*238 net24
*239 net25
*240 net26
*241 net27
*242 net28
*243 net29
*244 net3
*245 net30
*246 net31
*247 net32
*248 net33
*249 net34
*250 net35
*251 net36
*252 net37
*253 net38
*254 net39
*255 net4
*256 net40
*257 net41
*258 net42
*259 net43
*260 net44
*261 net45
*262 net46
*263 net47
*264 net48
*265 net49
*266 net5
*267 net50
*268 net51
*269 net52
*270 net53
*271 net54
*272 net55
*273 net56
*274 net57
*275 net58
*276 net59
*277 net6
*278 net60
*279 net61
*280 net62
*281 net63
*282 net64
*283 net65
*284 net66
*285 net67
*286 net68
*287 net69
*288 net7
*289 net70
*290 net71
*291 net72
*292 net73
*293 net74
*294 net75
*295 net76
*296 net77
*297 net78
*298 net79
*299 net8
*300 net80
*301 net81
*302 net82
*303 net83
*304 net84
*305 net85
*306 net86
*307 net87
*308 net88
*309 net89
*310 net9
*311 net90
*312 net91
*313 net92
*314 net93
*315 net94
*316 net95
*317 net96
*318 net97
*319 net98
*320 net99
*321 ANTENNA_0
*322 ANTENNA_1
*323 ANTENNA_10
*324 ANTENNA_11
*325 ANTENNA_12
*326 ANTENNA_2
*327 ANTENNA_3
*328 ANTENNA_4
*329 ANTENNA_5
*330 ANTENNA_6
*331 ANTENNA_7
*332 ANTENNA_8
*333 ANTENNA_9
*334 FILLER_0_107
*335 FILLER_0_111
*336 FILLER_0_116
*337 FILLER_0_122
*338 FILLER_0_127
*339 FILLER_0_136
*340 FILLER_0_141
*341 FILLER_0_148
*342 FILLER_0_156
*343 FILLER_0_173
*344 FILLER_0_189
*345 FILLER_0_195
*346 FILLER_0_197
*347 FILLER_0_205
*348 FILLER_0_209
*349 FILLER_0_221
*350 FILLER_0_225
*351 FILLER_0_229
*352 FILLER_0_23
*353 FILLER_0_241
*354 FILLER_0_249
*355 FILLER_0_256
*356 FILLER_0_27
*357 FILLER_0_271
*358 FILLER_0_279
*359 FILLER_0_281
*360 FILLER_0_29
*361 FILLER_0_292
*362 FILLER_0_304
*363 FILLER_0_312
*364 FILLER_0_324
*365 FILLER_0_340
*366 FILLER_0_348
*367 FILLER_0_360
*368 FILLER_0_365
*369 FILLER_0_37
*370 FILLER_0_381
*371 FILLER_0_389
*372 FILLER_0_403
*373 FILLER_0_415
*374 FILLER_0_419
*375 FILLER_0_431
*376 FILLER_0_44
*377 FILLER_0_443
*378 FILLER_0_447
*379 FILLER_0_449
*380 FILLER_0_453
*381 FILLER_0_464
*382 FILLER_0_487
*383 FILLER_0_499
*384 FILLER_0_503
*385 FILLER_0_515
*386 FILLER_0_523
*387 FILLER_0_531
*388 FILLER_0_533
*389 FILLER_0_541
*390 FILLER_0_553
*391 FILLER_0_559
*392 FILLER_0_565
*393 FILLER_0_57
*394 FILLER_0_577
*395 FILLER_0_583
*396 FILLER_0_587
*397 FILLER_0_589
*398 FILLER_0_597
*399 FILLER_0_603
*400 FILLER_0_615
*401 FILLER_0_617
*402 FILLER_0_624
*403 FILLER_0_636
*404 FILLER_0_649
*405 FILLER_0_65
*406 FILLER_0_665
*407 FILLER_0_671
*408 FILLER_0_673
*409 FILLER_0_681
*410 FILLER_0_686
*411 FILLER_0_698
*412 FILLER_0_7
*413 FILLER_0_701
*414 FILLER_0_707
*415 FILLER_0_719
*416 FILLER_0_72
*417 FILLER_0_727
*418 FILLER_0_733
*419 FILLER_0_741
*420 FILLER_0_748
*421 FILLER_0_757
*422 FILLER_0_769
*423 FILLER_0_781
*424 FILLER_0_785
*425 FILLER_0_790
*426 FILLER_0_80
*427 FILLER_0_802
*428 FILLER_0_808
*429 FILLER_0_813
*430 FILLER_0_819
*431 FILLER_0_826
*432 FILLER_0_836
*433 FILLER_0_841
*434 FILLER_0_85
*435 FILLER_0_89
*436 FILLER_0_92
*437 FILLER_0_99
*438 FILLER_10_101
*439 FILLER_10_113
*440 FILLER_10_125
*441 FILLER_10_137
*442 FILLER_10_141
*443 FILLER_10_15
*444 FILLER_10_153
*445 FILLER_10_165
*446 FILLER_10_177
*447 FILLER_10_189
*448 FILLER_10_195
*449 FILLER_10_197
*450 FILLER_10_209
*451 FILLER_10_221
*452 FILLER_10_233
*453 FILLER_10_245
*454 FILLER_10_251
*455 FILLER_10_253
*456 FILLER_10_265
*457 FILLER_10_27
*458 FILLER_10_277
*459 FILLER_10_289
*460 FILLER_10_29
*461 FILLER_10_3
*462 FILLER_10_301
*463 FILLER_10_307
*464 FILLER_10_309
*465 FILLER_10_321
*466 FILLER_10_333
*467 FILLER_10_345
*468 FILLER_10_357
*469 FILLER_10_363
*470 FILLER_10_365
*471 FILLER_10_377
*472 FILLER_10_389
*473 FILLER_10_401
*474 FILLER_10_41
*475 FILLER_10_413
*476 FILLER_10_419
*477 FILLER_10_421
*478 FILLER_10_433
*479 FILLER_10_445
*480 FILLER_10_457
*481 FILLER_10_469
*482 FILLER_10_475
*483 FILLER_10_477
*484 FILLER_10_489
*485 FILLER_10_501
*486 FILLER_10_513
*487 FILLER_10_525
*488 FILLER_10_53
*489 FILLER_10_531
*490 FILLER_10_533
*491 FILLER_10_545
*492 FILLER_10_557
*493 FILLER_10_569
*494 FILLER_10_581
*495 FILLER_10_587
*496 FILLER_10_589
*497 FILLER_10_601
*498 FILLER_10_613
*499 FILLER_10_625
*500 FILLER_10_637
*501 FILLER_10_643
*502 FILLER_10_645
*503 FILLER_10_65
*504 FILLER_10_657
*505 FILLER_10_669
*506 FILLER_10_681
*507 FILLER_10_693
*508 FILLER_10_699
*509 FILLER_10_701
*510 FILLER_10_713
*511 FILLER_10_725
*512 FILLER_10_73
*513 FILLER_10_737
*514 FILLER_10_749
*515 FILLER_10_755
*516 FILLER_10_757
*517 FILLER_10_769
*518 FILLER_10_781
*519 FILLER_10_793
*520 FILLER_10_80
*521 FILLER_10_805
*522 FILLER_10_811
*523 FILLER_10_813
*524 FILLER_10_825
*525 FILLER_10_831
*526 FILLER_10_838
*527 FILLER_10_91
*528 FILLER_11_105
*529 FILLER_11_111
*530 FILLER_11_113
*531 FILLER_11_125
*532 FILLER_11_137
*533 FILLER_11_149
*534 FILLER_11_15
*535 FILLER_11_161
*536 FILLER_11_167
*537 FILLER_11_169
*538 FILLER_11_181
*539 FILLER_11_193
*540 FILLER_11_205
*541 FILLER_11_217
*542 FILLER_11_223
*543 FILLER_11_225
*544 FILLER_11_237
*545 FILLER_11_249
*546 FILLER_11_261
*547 FILLER_11_27
*548 FILLER_11_273
*549 FILLER_11_279
*550 FILLER_11_281
*551 FILLER_11_293
*552 FILLER_11_3
*553 FILLER_11_305
*554 FILLER_11_317
*555 FILLER_11_329
*556 FILLER_11_335
*557 FILLER_11_337
*558 FILLER_11_349
*559 FILLER_11_361
*560 FILLER_11_373
*561 FILLER_11_385
*562 FILLER_11_39
*563 FILLER_11_391
*564 FILLER_11_393
*565 FILLER_11_405
*566 FILLER_11_417
*567 FILLER_11_429
*568 FILLER_11_441
*569 FILLER_11_447
*570 FILLER_11_449
*571 FILLER_11_461
*572 FILLER_11_473
*573 FILLER_11_485
*574 FILLER_11_497
*575 FILLER_11_503
*576 FILLER_11_505
*577 FILLER_11_51
*578 FILLER_11_517
*579 FILLER_11_529
*580 FILLER_11_541
*581 FILLER_11_55
*582 FILLER_11_553
*583 FILLER_11_559
*584 FILLER_11_561
*585 FILLER_11_57
*586 FILLER_11_573
*587 FILLER_11_585
*588 FILLER_11_597
*589 FILLER_11_609
*590 FILLER_11_615
*591 FILLER_11_617
*592 FILLER_11_629
*593 FILLER_11_641
*594 FILLER_11_653
*595 FILLER_11_665
*596 FILLER_11_671
*597 FILLER_11_673
*598 FILLER_11_685
*599 FILLER_11_69
*600 FILLER_11_697
*601 FILLER_11_709
*602 FILLER_11_721
*603 FILLER_11_727
*604 FILLER_11_729
*605 FILLER_11_741
*606 FILLER_11_753
*607 FILLER_11_765
*608 FILLER_11_777
*609 FILLER_11_783
*610 FILLER_11_785
*611 FILLER_11_79
*612 FILLER_11_797
*613 FILLER_11_809
*614 FILLER_11_821
*615 FILLER_11_833
*616 FILLER_11_839
*617 FILLER_11_841
*618 FILLER_11_89
*619 FILLER_11_97
*620 FILLER_12_101
*621 FILLER_12_113
*622 FILLER_12_125
*623 FILLER_12_137
*624 FILLER_12_141
*625 FILLER_12_15
*626 FILLER_12_153
*627 FILLER_12_165
*628 FILLER_12_177
*629 FILLER_12_189
*630 FILLER_12_195
*631 FILLER_12_197
*632 FILLER_12_209
*633 FILLER_12_221
*634 FILLER_12_233
*635 FILLER_12_245
*636 FILLER_12_251
*637 FILLER_12_253
*638 FILLER_12_265
*639 FILLER_12_27
*640 FILLER_12_277
*641 FILLER_12_289
*642 FILLER_12_29
*643 FILLER_12_3
*644 FILLER_12_301
*645 FILLER_12_307
*646 FILLER_12_309
*647 FILLER_12_321
*648 FILLER_12_333
*649 FILLER_12_345
*650 FILLER_12_357
*651 FILLER_12_363
*652 FILLER_12_365
*653 FILLER_12_377
*654 FILLER_12_389
*655 FILLER_12_401
*656 FILLER_12_41
*657 FILLER_12_413
*658 FILLER_12_419
*659 FILLER_12_421
*660 FILLER_12_433
*661 FILLER_12_445
*662 FILLER_12_457
*663 FILLER_12_469
*664 FILLER_12_475
*665 FILLER_12_477
*666 FILLER_12_489
*667 FILLER_12_501
*668 FILLER_12_513
*669 FILLER_12_525
*670 FILLER_12_53
*671 FILLER_12_531
*672 FILLER_12_533
*673 FILLER_12_545
*674 FILLER_12_557
*675 FILLER_12_569
*676 FILLER_12_581
*677 FILLER_12_587
*678 FILLER_12_589
*679 FILLER_12_601
*680 FILLER_12_613
*681 FILLER_12_625
*682 FILLER_12_637
*683 FILLER_12_643
*684 FILLER_12_645
*685 FILLER_12_65
*686 FILLER_12_657
*687 FILLER_12_669
*688 FILLER_12_681
*689 FILLER_12_693
*690 FILLER_12_699
*691 FILLER_12_701
*692 FILLER_12_713
*693 FILLER_12_725
*694 FILLER_12_73
*695 FILLER_12_737
*696 FILLER_12_749
*697 FILLER_12_755
*698 FILLER_12_757
*699 FILLER_12_769
*700 FILLER_12_781
*701 FILLER_12_793
*702 FILLER_12_80
*703 FILLER_12_805
*704 FILLER_12_811
*705 FILLER_12_813
*706 FILLER_12_825
*707 FILLER_12_831
*708 FILLER_12_838
*709 FILLER_12_89
*710 FILLER_13_105
*711 FILLER_13_111
*712 FILLER_13_113
*713 FILLER_13_125
*714 FILLER_13_137
*715 FILLER_13_149
*716 FILLER_13_15
*717 FILLER_13_161
*718 FILLER_13_167
*719 FILLER_13_169
*720 FILLER_13_181
*721 FILLER_13_193
*722 FILLER_13_205
*723 FILLER_13_217
*724 FILLER_13_223
*725 FILLER_13_225
*726 FILLER_13_237
*727 FILLER_13_249
*728 FILLER_13_261
*729 FILLER_13_27
*730 FILLER_13_273
*731 FILLER_13_279
*732 FILLER_13_281
*733 FILLER_13_293
*734 FILLER_13_3
*735 FILLER_13_305
*736 FILLER_13_317
*737 FILLER_13_329
*738 FILLER_13_335
*739 FILLER_13_337
*740 FILLER_13_349
*741 FILLER_13_361
*742 FILLER_13_373
*743 FILLER_13_385
*744 FILLER_13_39
*745 FILLER_13_391
*746 FILLER_13_393
*747 FILLER_13_405
*748 FILLER_13_417
*749 FILLER_13_429
*750 FILLER_13_441
*751 FILLER_13_447
*752 FILLER_13_449
*753 FILLER_13_461
*754 FILLER_13_473
*755 FILLER_13_485
*756 FILLER_13_497
*757 FILLER_13_503
*758 FILLER_13_505
*759 FILLER_13_51
*760 FILLER_13_517
*761 FILLER_13_529
*762 FILLER_13_541
*763 FILLER_13_55
*764 FILLER_13_553
*765 FILLER_13_559
*766 FILLER_13_561
*767 FILLER_13_57
*768 FILLER_13_573
*769 FILLER_13_585
*770 FILLER_13_597
*771 FILLER_13_609
*772 FILLER_13_615
*773 FILLER_13_617
*774 FILLER_13_629
*775 FILLER_13_641
*776 FILLER_13_653
*777 FILLER_13_665
*778 FILLER_13_671
*779 FILLER_13_673
*780 FILLER_13_685
*781 FILLER_13_69
*782 FILLER_13_697
*783 FILLER_13_709
*784 FILLER_13_721
*785 FILLER_13_727
*786 FILLER_13_729
*787 FILLER_13_741
*788 FILLER_13_753
*789 FILLER_13_765
*790 FILLER_13_777
*791 FILLER_13_783
*792 FILLER_13_785
*793 FILLER_13_797
*794 FILLER_13_809
*795 FILLER_13_81
*796 FILLER_13_821
*797 FILLER_13_833
*798 FILLER_13_839
*799 FILLER_13_841
*800 FILLER_13_93
*801 FILLER_14_109
*802 FILLER_14_121
*803 FILLER_14_133
*804 FILLER_14_139
*805 FILLER_14_141
*806 FILLER_14_15
*807 FILLER_14_153
*808 FILLER_14_165
*809 FILLER_14_177
*810 FILLER_14_189
*811 FILLER_14_195
*812 FILLER_14_197
*813 FILLER_14_209
*814 FILLER_14_221
*815 FILLER_14_233
*816 FILLER_14_245
*817 FILLER_14_251
*818 FILLER_14_253
*819 FILLER_14_265
*820 FILLER_14_27
*821 FILLER_14_277
*822 FILLER_14_289
*823 FILLER_14_29
*824 FILLER_14_3
*825 FILLER_14_301
*826 FILLER_14_307
*827 FILLER_14_309
*828 FILLER_14_321
*829 FILLER_14_333
*830 FILLER_14_345
*831 FILLER_14_357
*832 FILLER_14_363
*833 FILLER_14_365
*834 FILLER_14_377
*835 FILLER_14_389
*836 FILLER_14_401
*837 FILLER_14_41
*838 FILLER_14_413
*839 FILLER_14_419
*840 FILLER_14_421
*841 FILLER_14_433
*842 FILLER_14_445
*843 FILLER_14_457
*844 FILLER_14_469
*845 FILLER_14_475
*846 FILLER_14_477
*847 FILLER_14_489
*848 FILLER_14_501
*849 FILLER_14_513
*850 FILLER_14_525
*851 FILLER_14_53
*852 FILLER_14_531
*853 FILLER_14_533
*854 FILLER_14_545
*855 FILLER_14_557
*856 FILLER_14_569
*857 FILLER_14_581
*858 FILLER_14_587
*859 FILLER_14_589
*860 FILLER_14_601
*861 FILLER_14_613
*862 FILLER_14_625
*863 FILLER_14_637
*864 FILLER_14_643
*865 FILLER_14_645
*866 FILLER_14_65
*867 FILLER_14_657
*868 FILLER_14_669
*869 FILLER_14_681
*870 FILLER_14_693
*871 FILLER_14_699
*872 FILLER_14_701
*873 FILLER_14_713
*874 FILLER_14_725
*875 FILLER_14_737
*876 FILLER_14_749
*877 FILLER_14_755
*878 FILLER_14_757
*879 FILLER_14_769
*880 FILLER_14_77
*881 FILLER_14_781
*882 FILLER_14_793
*883 FILLER_14_805
*884 FILLER_14_811
*885 FILLER_14_813
*886 FILLER_14_825
*887 FILLER_14_83
*888 FILLER_14_831
*889 FILLER_14_838
*890 FILLER_14_85
*891 FILLER_14_97
*892 FILLER_15_105
*893 FILLER_15_111
*894 FILLER_15_113
*895 FILLER_15_125
*896 FILLER_15_137
*897 FILLER_15_149
*898 FILLER_15_15
*899 FILLER_15_161
*900 FILLER_15_167
*901 FILLER_15_169
*902 FILLER_15_181
*903 FILLER_15_193
*904 FILLER_15_205
*905 FILLER_15_217
*906 FILLER_15_223
*907 FILLER_15_225
*908 FILLER_15_237
*909 FILLER_15_249
*910 FILLER_15_261
*911 FILLER_15_27
*912 FILLER_15_273
*913 FILLER_15_279
*914 FILLER_15_281
*915 FILLER_15_293
*916 FILLER_15_3
*917 FILLER_15_305
*918 FILLER_15_317
*919 FILLER_15_329
*920 FILLER_15_335
*921 FILLER_15_337
*922 FILLER_15_349
*923 FILLER_15_361
*924 FILLER_15_373
*925 FILLER_15_385
*926 FILLER_15_39
*927 FILLER_15_391
*928 FILLER_15_393
*929 FILLER_15_405
*930 FILLER_15_417
*931 FILLER_15_429
*932 FILLER_15_441
*933 FILLER_15_447
*934 FILLER_15_449
*935 FILLER_15_461
*936 FILLER_15_473
*937 FILLER_15_485
*938 FILLER_15_497
*939 FILLER_15_503
*940 FILLER_15_505
*941 FILLER_15_51
*942 FILLER_15_517
*943 FILLER_15_529
*944 FILLER_15_541
*945 FILLER_15_55
*946 FILLER_15_553
*947 FILLER_15_559
*948 FILLER_15_561
*949 FILLER_15_57
*950 FILLER_15_573
*951 FILLER_15_585
*952 FILLER_15_597
*953 FILLER_15_609
*954 FILLER_15_615
*955 FILLER_15_617
*956 FILLER_15_629
*957 FILLER_15_641
*958 FILLER_15_653
*959 FILLER_15_665
*960 FILLER_15_671
*961 FILLER_15_673
*962 FILLER_15_685
*963 FILLER_15_69
*964 FILLER_15_697
*965 FILLER_15_709
*966 FILLER_15_721
*967 FILLER_15_727
*968 FILLER_15_729
*969 FILLER_15_741
*970 FILLER_15_753
*971 FILLER_15_765
*972 FILLER_15_777
*973 FILLER_15_783
*974 FILLER_15_785
*975 FILLER_15_797
*976 FILLER_15_809
*977 FILLER_15_81
*978 FILLER_15_821
*979 FILLER_15_833
*980 FILLER_15_839
*981 FILLER_15_841
*982 FILLER_15_93
*983 FILLER_16_109
*984 FILLER_16_121
*985 FILLER_16_133
*986 FILLER_16_139
*987 FILLER_16_141
*988 FILLER_16_15
*989 FILLER_16_153
*990 FILLER_16_165
*991 FILLER_16_177
*992 FILLER_16_189
*993 FILLER_16_195
*994 FILLER_16_197
*995 FILLER_16_209
*996 FILLER_16_221
*997 FILLER_16_233
*998 FILLER_16_247
*999 FILLER_16_251
*1000 FILLER_16_253
*1001 FILLER_16_265
*1002 FILLER_16_27
*1003 FILLER_16_277
*1004 FILLER_16_289
*1005 FILLER_16_29
*1006 FILLER_16_3
*1007 FILLER_16_301
*1008 FILLER_16_307
*1009 FILLER_16_309
*1010 FILLER_16_321
*1011 FILLER_16_333
*1012 FILLER_16_345
*1013 FILLER_16_357
*1014 FILLER_16_363
*1015 FILLER_16_365
*1016 FILLER_16_377
*1017 FILLER_16_389
*1018 FILLER_16_401
*1019 FILLER_16_41
*1020 FILLER_16_413
*1021 FILLER_16_419
*1022 FILLER_16_421
*1023 FILLER_16_433
*1024 FILLER_16_445
*1025 FILLER_16_457
*1026 FILLER_16_469
*1027 FILLER_16_475
*1028 FILLER_16_477
*1029 FILLER_16_489
*1030 FILLER_16_501
*1031 FILLER_16_513
*1032 FILLER_16_525
*1033 FILLER_16_53
*1034 FILLER_16_531
*1035 FILLER_16_533
*1036 FILLER_16_545
*1037 FILLER_16_557
*1038 FILLER_16_569
*1039 FILLER_16_581
*1040 FILLER_16_587
*1041 FILLER_16_589
*1042 FILLER_16_601
*1043 FILLER_16_613
*1044 FILLER_16_625
*1045 FILLER_16_637
*1046 FILLER_16_643
*1047 FILLER_16_645
*1048 FILLER_16_65
*1049 FILLER_16_657
*1050 FILLER_16_669
*1051 FILLER_16_681
*1052 FILLER_16_693
*1053 FILLER_16_699
*1054 FILLER_16_701
*1055 FILLER_16_713
*1056 FILLER_16_725
*1057 FILLER_16_737
*1058 FILLER_16_749
*1059 FILLER_16_755
*1060 FILLER_16_757
*1061 FILLER_16_769
*1062 FILLER_16_77
*1063 FILLER_16_781
*1064 FILLER_16_793
*1065 FILLER_16_805
*1066 FILLER_16_811
*1067 FILLER_16_813
*1068 FILLER_16_825
*1069 FILLER_16_83
*1070 FILLER_16_833
*1071 FILLER_16_838
*1072 FILLER_16_85
*1073 FILLER_16_97
*1074 FILLER_17_105
*1075 FILLER_17_111
*1076 FILLER_17_113
*1077 FILLER_17_125
*1078 FILLER_17_137
*1079 FILLER_17_149
*1080 FILLER_17_15
*1081 FILLER_17_161
*1082 FILLER_17_167
*1083 FILLER_17_169
*1084 FILLER_17_181
*1085 FILLER_17_193
*1086 FILLER_17_214
*1087 FILLER_17_222
*1088 FILLER_17_234
*1089 FILLER_17_252
*1090 FILLER_17_264
*1091 FILLER_17_27
*1092 FILLER_17_276
*1093 FILLER_17_281
*1094 FILLER_17_293
*1095 FILLER_17_3
*1096 FILLER_17_305
*1097 FILLER_17_317
*1098 FILLER_17_329
*1099 FILLER_17_335
*1100 FILLER_17_337
*1101 FILLER_17_349
*1102 FILLER_17_361
*1103 FILLER_17_373
*1104 FILLER_17_385
*1105 FILLER_17_39
*1106 FILLER_17_391
*1107 FILLER_17_393
*1108 FILLER_17_405
*1109 FILLER_17_417
*1110 FILLER_17_429
*1111 FILLER_17_441
*1112 FILLER_17_447
*1113 FILLER_17_449
*1114 FILLER_17_461
*1115 FILLER_17_473
*1116 FILLER_17_485
*1117 FILLER_17_497
*1118 FILLER_17_503
*1119 FILLER_17_505
*1120 FILLER_17_51
*1121 FILLER_17_517
*1122 FILLER_17_529
*1123 FILLER_17_541
*1124 FILLER_17_55
*1125 FILLER_17_553
*1126 FILLER_17_559
*1127 FILLER_17_561
*1128 FILLER_17_57
*1129 FILLER_17_573
*1130 FILLER_17_585
*1131 FILLER_17_597
*1132 FILLER_17_609
*1133 FILLER_17_615
*1134 FILLER_17_617
*1135 FILLER_17_629
*1136 FILLER_17_641
*1137 FILLER_17_653
*1138 FILLER_17_665
*1139 FILLER_17_671
*1140 FILLER_17_673
*1141 FILLER_17_685
*1142 FILLER_17_69
*1143 FILLER_17_697
*1144 FILLER_17_709
*1145 FILLER_17_721
*1146 FILLER_17_727
*1147 FILLER_17_729
*1148 FILLER_17_741
*1149 FILLER_17_753
*1150 FILLER_17_765
*1151 FILLER_17_777
*1152 FILLER_17_783
*1153 FILLER_17_785
*1154 FILLER_17_797
*1155 FILLER_17_809
*1156 FILLER_17_81
*1157 FILLER_17_821
*1158 FILLER_17_829
*1159 FILLER_17_836
*1160 FILLER_17_841
*1161 FILLER_17_93
*1162 FILLER_18_109
*1163 FILLER_18_121
*1164 FILLER_18_133
*1165 FILLER_18_139
*1166 FILLER_18_141
*1167 FILLER_18_15
*1168 FILLER_18_153
*1169 FILLER_18_165
*1170 FILLER_18_177
*1171 FILLER_18_189
*1172 FILLER_18_195
*1173 FILLER_18_197
*1174 FILLER_18_209
*1175 FILLER_18_221
*1176 FILLER_18_233
*1177 FILLER_18_248
*1178 FILLER_18_259
*1179 FILLER_18_27
*1180 FILLER_18_271
*1181 FILLER_18_283
*1182 FILLER_18_29
*1183 FILLER_18_295
*1184 FILLER_18_3
*1185 FILLER_18_307
*1186 FILLER_18_309
*1187 FILLER_18_321
*1188 FILLER_18_333
*1189 FILLER_18_345
*1190 FILLER_18_357
*1191 FILLER_18_363
*1192 FILLER_18_365
*1193 FILLER_18_377
*1194 FILLER_18_389
*1195 FILLER_18_401
*1196 FILLER_18_41
*1197 FILLER_18_413
*1198 FILLER_18_419
*1199 FILLER_18_421
*1200 FILLER_18_433
*1201 FILLER_18_445
*1202 FILLER_18_457
*1203 FILLER_18_469
*1204 FILLER_18_475
*1205 FILLER_18_477
*1206 FILLER_18_489
*1207 FILLER_18_501
*1208 FILLER_18_513
*1209 FILLER_18_525
*1210 FILLER_18_53
*1211 FILLER_18_531
*1212 FILLER_18_533
*1213 FILLER_18_545
*1214 FILLER_18_557
*1215 FILLER_18_569
*1216 FILLER_18_581
*1217 FILLER_18_587
*1218 FILLER_18_589
*1219 FILLER_18_601
*1220 FILLER_18_613
*1221 FILLER_18_625
*1222 FILLER_18_637
*1223 FILLER_18_643
*1224 FILLER_18_645
*1225 FILLER_18_65
*1226 FILLER_18_657
*1227 FILLER_18_669
*1228 FILLER_18_681
*1229 FILLER_18_693
*1230 FILLER_18_699
*1231 FILLER_18_701
*1232 FILLER_18_713
*1233 FILLER_18_725
*1234 FILLER_18_737
*1235 FILLER_18_749
*1236 FILLER_18_755
*1237 FILLER_18_757
*1238 FILLER_18_769
*1239 FILLER_18_77
*1240 FILLER_18_781
*1241 FILLER_18_793
*1242 FILLER_18_805
*1243 FILLER_18_811
*1244 FILLER_18_813
*1245 FILLER_18_825
*1246 FILLER_18_83
*1247 FILLER_18_837
*1248 FILLER_18_841
*1249 FILLER_18_85
*1250 FILLER_18_97
*1251 FILLER_19_105
*1252 FILLER_19_111
*1253 FILLER_19_113
*1254 FILLER_19_125
*1255 FILLER_19_137
*1256 FILLER_19_149
*1257 FILLER_19_15
*1258 FILLER_19_161
*1259 FILLER_19_167
*1260 FILLER_19_169
*1261 FILLER_19_181
*1262 FILLER_19_193
*1263 FILLER_19_205
*1264 FILLER_19_217
*1265 FILLER_19_223
*1266 FILLER_19_225
*1267 FILLER_19_237
*1268 FILLER_19_249
*1269 FILLER_19_261
*1270 FILLER_19_27
*1271 FILLER_19_273
*1272 FILLER_19_279
*1273 FILLER_19_281
*1274 FILLER_19_293
*1275 FILLER_19_3
*1276 FILLER_19_305
*1277 FILLER_19_317
*1278 FILLER_19_329
*1279 FILLER_19_335
*1280 FILLER_19_337
*1281 FILLER_19_349
*1282 FILLER_19_361
*1283 FILLER_19_373
*1284 FILLER_19_385
*1285 FILLER_19_39
*1286 FILLER_19_391
*1287 FILLER_19_393
*1288 FILLER_19_405
*1289 FILLER_19_417
*1290 FILLER_19_429
*1291 FILLER_19_441
*1292 FILLER_19_447
*1293 FILLER_19_449
*1294 FILLER_19_461
*1295 FILLER_19_473
*1296 FILLER_19_485
*1297 FILLER_19_497
*1298 FILLER_19_503
*1299 FILLER_19_505
*1300 FILLER_19_51
*1301 FILLER_19_517
*1302 FILLER_19_529
*1303 FILLER_19_541
*1304 FILLER_19_55
*1305 FILLER_19_553
*1306 FILLER_19_559
*1307 FILLER_19_561
*1308 FILLER_19_57
*1309 FILLER_19_573
*1310 FILLER_19_585
*1311 FILLER_19_597
*1312 FILLER_19_609
*1313 FILLER_19_615
*1314 FILLER_19_617
*1315 FILLER_19_629
*1316 FILLER_19_641
*1317 FILLER_19_653
*1318 FILLER_19_665
*1319 FILLER_19_671
*1320 FILLER_19_673
*1321 FILLER_19_685
*1322 FILLER_19_69
*1323 FILLER_19_697
*1324 FILLER_19_709
*1325 FILLER_19_721
*1326 FILLER_19_727
*1327 FILLER_19_729
*1328 FILLER_19_741
*1329 FILLER_19_753
*1330 FILLER_19_765
*1331 FILLER_19_777
*1332 FILLER_19_783
*1333 FILLER_19_785
*1334 FILLER_19_797
*1335 FILLER_19_809
*1336 FILLER_19_81
*1337 FILLER_19_821
*1338 FILLER_19_827
*1339 FILLER_19_830
*1340 FILLER_19_836
*1341 FILLER_19_841
*1342 FILLER_19_93
*1343 FILLER_1_100
*1344 FILLER_1_105
*1345 FILLER_1_111
*1346 FILLER_1_113
*1347 FILLER_1_125
*1348 FILLER_1_133
*1349 FILLER_1_138
*1350 FILLER_1_142
*1351 FILLER_1_149
*1352 FILLER_1_15
*1353 FILLER_1_158
*1354 FILLER_1_166
*1355 FILLER_1_174
*1356 FILLER_1_183
*1357 FILLER_1_190
*1358 FILLER_1_202
*1359 FILLER_1_214
*1360 FILLER_1_222
*1361 FILLER_1_225
*1362 FILLER_1_237
*1363 FILLER_1_249
*1364 FILLER_1_261
*1365 FILLER_1_27
*1366 FILLER_1_273
*1367 FILLER_1_279
*1368 FILLER_1_281
*1369 FILLER_1_293
*1370 FILLER_1_3
*1371 FILLER_1_305
*1372 FILLER_1_317
*1373 FILLER_1_329
*1374 FILLER_1_335
*1375 FILLER_1_337
*1376 FILLER_1_349
*1377 FILLER_1_361
*1378 FILLER_1_373
*1379 FILLER_1_385
*1380 FILLER_1_39
*1381 FILLER_1_391
*1382 FILLER_1_393
*1383 FILLER_1_405
*1384 FILLER_1_417
*1385 FILLER_1_429
*1386 FILLER_1_433
*1387 FILLER_1_444
*1388 FILLER_1_449
*1389 FILLER_1_461
*1390 FILLER_1_473
*1391 FILLER_1_485
*1392 FILLER_1_497
*1393 FILLER_1_503
*1394 FILLER_1_505
*1395 FILLER_1_51
*1396 FILLER_1_517
*1397 FILLER_1_529
*1398 FILLER_1_541
*1399 FILLER_1_55
*1400 FILLER_1_553
*1401 FILLER_1_559
*1402 FILLER_1_561
*1403 FILLER_1_57
*1404 FILLER_1_573
*1405 FILLER_1_585
*1406 FILLER_1_597
*1407 FILLER_1_609
*1408 FILLER_1_615
*1409 FILLER_1_617
*1410 FILLER_1_629
*1411 FILLER_1_641
*1412 FILLER_1_653
*1413 FILLER_1_665
*1414 FILLER_1_671
*1415 FILLER_1_673
*1416 FILLER_1_685
*1417 FILLER_1_69
*1418 FILLER_1_697
*1419 FILLER_1_709
*1420 FILLER_1_721
*1421 FILLER_1_727
*1422 FILLER_1_729
*1423 FILLER_1_741
*1424 FILLER_1_753
*1425 FILLER_1_765
*1426 FILLER_1_777
*1427 FILLER_1_783
*1428 FILLER_1_785
*1429 FILLER_1_797
*1430 FILLER_1_80
*1431 FILLER_1_809
*1432 FILLER_1_821
*1433 FILLER_1_826
*1434 FILLER_1_836
*1435 FILLER_1_84
*1436 FILLER_1_841
*1437 FILLER_20_109
*1438 FILLER_20_121
*1439 FILLER_20_133
*1440 FILLER_20_139
*1441 FILLER_20_141
*1442 FILLER_20_15
*1443 FILLER_20_153
*1444 FILLER_20_165
*1445 FILLER_20_177
*1446 FILLER_20_189
*1447 FILLER_20_195
*1448 FILLER_20_197
*1449 FILLER_20_209
*1450 FILLER_20_221
*1451 FILLER_20_233
*1452 FILLER_20_245
*1453 FILLER_20_251
*1454 FILLER_20_253
*1455 FILLER_20_261
*1456 FILLER_20_27
*1457 FILLER_20_273
*1458 FILLER_20_283
*1459 FILLER_20_29
*1460 FILLER_20_295
*1461 FILLER_20_3
*1462 FILLER_20_307
*1463 FILLER_20_309
*1464 FILLER_20_321
*1465 FILLER_20_333
*1466 FILLER_20_345
*1467 FILLER_20_357
*1468 FILLER_20_363
*1469 FILLER_20_365
*1470 FILLER_20_377
*1471 FILLER_20_389
*1472 FILLER_20_401
*1473 FILLER_20_41
*1474 FILLER_20_413
*1475 FILLER_20_419
*1476 FILLER_20_421
*1477 FILLER_20_433
*1478 FILLER_20_445
*1479 FILLER_20_457
*1480 FILLER_20_469
*1481 FILLER_20_475
*1482 FILLER_20_477
*1483 FILLER_20_489
*1484 FILLER_20_501
*1485 FILLER_20_513
*1486 FILLER_20_525
*1487 FILLER_20_53
*1488 FILLER_20_531
*1489 FILLER_20_533
*1490 FILLER_20_545
*1491 FILLER_20_557
*1492 FILLER_20_569
*1493 FILLER_20_581
*1494 FILLER_20_587
*1495 FILLER_20_589
*1496 FILLER_20_601
*1497 FILLER_20_613
*1498 FILLER_20_625
*1499 FILLER_20_637
*1500 FILLER_20_643
*1501 FILLER_20_645
*1502 FILLER_20_65
*1503 FILLER_20_657
*1504 FILLER_20_669
*1505 FILLER_20_681
*1506 FILLER_20_693
*1507 FILLER_20_699
*1508 FILLER_20_701
*1509 FILLER_20_713
*1510 FILLER_20_725
*1511 FILLER_20_737
*1512 FILLER_20_749
*1513 FILLER_20_755
*1514 FILLER_20_757
*1515 FILLER_20_769
*1516 FILLER_20_77
*1517 FILLER_20_781
*1518 FILLER_20_793
*1519 FILLER_20_805
*1520 FILLER_20_811
*1521 FILLER_20_813
*1522 FILLER_20_825
*1523 FILLER_20_83
*1524 FILLER_20_837
*1525 FILLER_20_841
*1526 FILLER_20_85
*1527 FILLER_20_97
*1528 FILLER_21_105
*1529 FILLER_21_111
*1530 FILLER_21_113
*1531 FILLER_21_125
*1532 FILLER_21_137
*1533 FILLER_21_141
*1534 FILLER_21_148
*1535 FILLER_21_15
*1536 FILLER_21_160
*1537 FILLER_21_169
*1538 FILLER_21_181
*1539 FILLER_21_193
*1540 FILLER_21_205
*1541 FILLER_21_217
*1542 FILLER_21_223
*1543 FILLER_21_225
*1544 FILLER_21_237
*1545 FILLER_21_249
*1546 FILLER_21_261
*1547 FILLER_21_27
*1548 FILLER_21_273
*1549 FILLER_21_279
*1550 FILLER_21_281
*1551 FILLER_21_292
*1552 FILLER_21_3
*1553 FILLER_21_304
*1554 FILLER_21_316
*1555 FILLER_21_328
*1556 FILLER_21_337
*1557 FILLER_21_349
*1558 FILLER_21_361
*1559 FILLER_21_373
*1560 FILLER_21_385
*1561 FILLER_21_39
*1562 FILLER_21_391
*1563 FILLER_21_393
*1564 FILLER_21_405
*1565 FILLER_21_417
*1566 FILLER_21_429
*1567 FILLER_21_441
*1568 FILLER_21_447
*1569 FILLER_21_449
*1570 FILLER_21_461
*1571 FILLER_21_473
*1572 FILLER_21_485
*1573 FILLER_21_497
*1574 FILLER_21_503
*1575 FILLER_21_505
*1576 FILLER_21_51
*1577 FILLER_21_517
*1578 FILLER_21_529
*1579 FILLER_21_541
*1580 FILLER_21_55
*1581 FILLER_21_553
*1582 FILLER_21_559
*1583 FILLER_21_561
*1584 FILLER_21_57
*1585 FILLER_21_573
*1586 FILLER_21_585
*1587 FILLER_21_597
*1588 FILLER_21_609
*1589 FILLER_21_615
*1590 FILLER_21_617
*1591 FILLER_21_629
*1592 FILLER_21_641
*1593 FILLER_21_653
*1594 FILLER_21_665
*1595 FILLER_21_671
*1596 FILLER_21_673
*1597 FILLER_21_685
*1598 FILLER_21_69
*1599 FILLER_21_697
*1600 FILLER_21_709
*1601 FILLER_21_721
*1602 FILLER_21_727
*1603 FILLER_21_729
*1604 FILLER_21_741
*1605 FILLER_21_753
*1606 FILLER_21_765
*1607 FILLER_21_777
*1608 FILLER_21_783
*1609 FILLER_21_785
*1610 FILLER_21_797
*1611 FILLER_21_809
*1612 FILLER_21_81
*1613 FILLER_21_821
*1614 FILLER_21_827
*1615 FILLER_21_830
*1616 FILLER_21_836
*1617 FILLER_21_841
*1618 FILLER_21_93
*1619 FILLER_22_109
*1620 FILLER_22_121
*1621 FILLER_22_133
*1622 FILLER_22_139
*1623 FILLER_22_141
*1624 FILLER_22_148
*1625 FILLER_22_15
*1626 FILLER_22_166
*1627 FILLER_22_174
*1628 FILLER_22_181
*1629 FILLER_22_188
*1630 FILLER_22_197
*1631 FILLER_22_209
*1632 FILLER_22_221
*1633 FILLER_22_233
*1634 FILLER_22_245
*1635 FILLER_22_251
*1636 FILLER_22_253
*1637 FILLER_22_265
*1638 FILLER_22_27
*1639 FILLER_22_277
*1640 FILLER_22_285
*1641 FILLER_22_29
*1642 FILLER_22_295
*1643 FILLER_22_3
*1644 FILLER_22_307
*1645 FILLER_22_309
*1646 FILLER_22_321
*1647 FILLER_22_333
*1648 FILLER_22_345
*1649 FILLER_22_357
*1650 FILLER_22_363
*1651 FILLER_22_365
*1652 FILLER_22_377