*SPEF "ieee 1481-1999"
*DESIGN "merge_memory"
*DATE "11:11:11 Fri 11 11, 1111"
*VENDOR "OpenRCX"
*PROGRAM "Parallel Extraction"
*VERSION "1.0"
*DESIGN_FLOW "NAME_SCOPE LOCAL" "PIN_CAP NONE"
*DIVIDER /
*DELIMITER :
*BUS_DELIMITER []
*T_UNIT 1 NS
*C_UNIT 1 PF
*R_UNIT 1 OHM
*L_UNIT 1 HENRY

*NAME_MAP
*1 addr[0]
*2 addr[1]
*3 addr[2]
*4 addr[3]
*5 addr[4]
*6 addr[5]
*7 addr[6]
*8 addr[7]
*9 addr[8]
*10 addr[9]
*11 addr_mem0[0]
*12 addr_mem0[1]
*13 addr_mem0[2]
*14 addr_mem0[3]
*15 addr_mem0[4]
*16 addr_mem0[5]
*17 addr_mem0[6]
*18 addr_mem0[7]
*19 addr_mem0[8]
*20 addr_mem1[0]
*21 addr_mem1[1]
*22 addr_mem1[2]
*23 addr_mem1[3]
*24 addr_mem1[4]
*25 addr_mem1[5]
*26 addr_mem1[6]
*27 addr_mem1[7]
*28 addr_mem1[8]
*29 csb
*30 csb_mem0
*31 csb_mem1
*32 dout[0]
*33 dout[10]
*34 dout[11]
*35 dout[12]
*36 dout[13]
*37 dout[14]
*38 dout[15]
*39 dout[16]
*40 dout[17]
*41 dout[18]
*42 dout[19]
*43 dout[1]
*44 dout[20]
*45 dout[21]
*46 dout[22]
*47 dout[23]
*48 dout[24]
*49 dout[25]
*50 dout[26]
*51 dout[27]
*52 dout[28]
*53 dout[29]
*54 dout[2]
*55 dout[30]
*56 dout[31]
*57 dout[3]
*58 dout[4]
*59 dout[5]
*60 dout[6]
*61 dout[7]
*62 dout[8]
*63 dout[9]
*64 dout_mem0[0]
*65 dout_mem0[10]
*66 dout_mem0[11]
*67 dout_mem0[12]
*68 dout_mem0[13]
*69 dout_mem0[14]
*70 dout_mem0[15]
*71 dout_mem0[16]
*72 dout_mem0[17]
*73 dout_mem0[18]
*74 dout_mem0[19]
*75 dout_mem0[1]
*76 dout_mem0[20]
*77 dout_mem0[21]
*78 dout_mem0[22]
*79 dout_mem0[23]
*80 dout_mem0[24]
*81 dout_mem0[25]
*82 dout_mem0[26]
*83 dout_mem0[27]
*84 dout_mem0[28]
*85 dout_mem0[29]
*86 dout_mem0[2]
*87 dout_mem0[30]
*88 dout_mem0[31]
*89 dout_mem0[3]
*90 dout_mem0[4]
*91 dout_mem0[5]
*92 dout_mem0[6]
*93 dout_mem0[7]
*94 dout_mem0[8]
*95 dout_mem0[9]
*96 dout_mem1[0]
*97 dout_mem1[10]
*98 dout_mem1[11]
*99 dout_mem1[12]
*100 dout_mem1[13]
*101 dout_mem1[14]
*102 dout_mem1[15]
*103 dout_mem1[16]
*104 dout_mem1[17]
*105 dout_mem1[18]
*106 dout_mem1[19]
*107 dout_mem1[1]
*108 dout_mem1[20]
*109 dout_mem1[21]
*110 dout_mem1[22]
*111 dout_mem1[23]
*112 dout_mem1[24]
*113 dout_mem1[25]
*114 dout_mem1[26]
*115 dout_mem1[27]
*116 dout_mem1[28]
*117 dout_mem1[29]
*118 dout_mem1[2]
*119 dout_mem1[30]
*120 dout_mem1[31]
*121 dout_mem1[3]
*122 dout_mem1[4]
*123 dout_mem1[5]
*124 dout_mem1[6]
*125 dout_mem1[7]
*126 dout_mem1[8]
*127 dout_mem1[9]
*130 _000_
*131 _001_
*132 _002_
*133 _003_
*134 _004_
*135 _005_
*136 _006_
*137 _007_
*138 _008_
*139 _009_
*140 _010_
*141 _011_
*142 _012_
*143 _013_
*144 _014_
*145 _015_
*146 _016_
*147 _017_
*148 _018_
*149 _019_
*150 _020_
*151 _021_
*152 _022_
*153 _023_
*154 _024_
*155 _025_
*156 _026_
*157 _027_
*158 _028_
*159 _029_
*160 _030_
*161 _031_
*162 _032_
*163 _033_
*164 _034_
*165 _035_
*166 _036_
*167 _037_
*168 _038_
*169 net1
*170 net10
*171 net100
*172 net101
*173 net102
*174 net103
*175 net104
*176 net105
*177 net106
*178 net107
*179 net108
*180 net109
*181 net11
*182 net110
*183 net111
*184 net112
*185 net113
*186 net114
*187 net115
*188 net116
*189 net117
*190 net118
*191 net119
*192 net12
*193 net120
*194 net121
*195 net122
*196 net123
*197 net124
*198 net125
*199 net126
*200 net127
*201 net13
*202 net14
*203 net15
*204 net16
*205 net17
*206 net18
*207 net19
*208 net2
*209 net20
*210 net21
*211 net22
*212 net23
*213 net24
*214 net25
*215 net26
*216 net27
*217 net28
*218 net29
*219 net3
*220 net30
*221 net31
*222 net32
*223 net33
*224 net34
*225 net35
*226 net36
*227 net37
*228 net38
*229 net39
*230 net4
*231 net40
*232 net41
*233 net42
*234 net43
*235 net44
*236 net45
*237 net46
*238 net47
*239 net48
*240 net49
*241 net5
*242 net50
*243 net51
*244 net52
*245 net53
*246 net54
*247 net55
*248 net56
*249 net57
*250 net58
*251 net59
*252 net6
*253 net60
*254 net61
*255 net62
*256 net63
*257 net64
*258 net65
*259 net66
*260 net67
*261 net68
*262 net69
*263 net7
*264 net70
*265 net71
*266 net72
*267 net73
*268 net74
*269 net75
*270 net76
*271 net77
*272 net78
*273 net79
*274 net8
*275 net80
*276 net81
*277 net82
*278 net83
*279 net84
*280 net85
*281 net86
*282 net87
*283 net88
*284 net89
*285 net9
*286 net90
*287 net91
*288 net92
*289 net93
*290 net94
*291 net95
*292 net96
*293 net97
*294 net98
*295 net99
*296 ANTENNA__039__A
*297 ANTENNA__041__A0
*298 ANTENNA__043__A0
*299 ANTENNA__045__A0
*300 ANTENNA__047__A0
*301 ANTENNA__049__A0
*302 ANTENNA__052__A0
*303 ANTENNA__054__A0
*304 ANTENNA__056__A0
*305 ANTENNA__058__A0
*306 ANTENNA__060__A0
*307 ANTENNA__063__A0
*308 ANTENNA__063__A1
*309 ANTENNA__063__S
*310 ANTENNA__065__A0
*311 ANTENNA__065__S
*312 ANTENNA__067__A0
*313 ANTENNA__067__S
*314 ANTENNA__069__A0
*315 ANTENNA__069__S
*316 ANTENNA__071__A0
*317 ANTENNA__071__S
*318 ANTENNA__073__A
*319 ANTENNA__074__A0
*320 ANTENNA__076__A0
*321 ANTENNA__078__A0
*322 ANTENNA__080__A0
*323 ANTENNA__082__A0
*324 ANTENNA__084__A
*325 ANTENNA__085__A0
*326 ANTENNA__087__A0
*327 ANTENNA__089__A0
*328 ANTENNA__091__A0
*329 ANTENNA__093__A0
*330 ANTENNA__095__A
*331 ANTENNA__096__A0
*332 ANTENNA__098__A0
*333 ANTENNA__100__A0
*334 ANTENNA__102__A0
*335 ANTENNA__104__A0
*336 ANTENNA__106__A0
*337 ANTENNA__108__A0
*338 ANTENNA__110__A
*339 ANTENNA__111__A
*340 ANTENNA__112__A
*341 ANTENNA__113__A
*342 ANTENNA__114__A
*343 ANTENNA__115__A
*344 ANTENNA__116__A
*345 ANTENNA__117__A
*346 ANTENNA__118__A
*347 ANTENNA__119__A
*348 ANTENNA__120__A
*349 ANTENNA__121__A
*350 ANTENNA__122__A
*351 ANTENNA__123__A
*352 ANTENNA__124__A
*353 ANTENNA__125__A
*354 ANTENNA__126__A
*355 ANTENNA__127__A
*356 ANTENNA__128__A
*357 ANTENNA__129__A
*358 ANTENNA_input10_A
*359 ANTENNA_input11_A
*360 ANTENNA_input12_A
*361 ANTENNA_input13_A
*362 ANTENNA_input14_A
*363 ANTENNA_input15_A
*364 ANTENNA_input16_A
*365 ANTENNA_input17_A
*366 ANTENNA_input18_A
*367 ANTENNA_input19_A
*368 ANTENNA_input1_A
*369 ANTENNA_input20_A
*370 ANTENNA_input21_A
*371 ANTENNA_input22_A
*372 ANTENNA_input23_A
*373 ANTENNA_input24_A
*374 ANTENNA_input25_A
*375 ANTENNA_input26_A
*376 ANTENNA_input27_A
*377 ANTENNA_input28_A
*378 ANTENNA_input29_A
*379 ANTENNA_input2_A
*380 ANTENNA_input30_A
*381 ANTENNA_input31_A
*382 ANTENNA_input32_A
*383 ANTENNA_input33_A
*384 ANTENNA_input34_A
*385 ANTENNA_input35_A
*386 ANTENNA_input36_A
*387 ANTENNA_input37_A
*388 ANTENNA_input38_A
*389 ANTENNA_input39_A
*390 ANTENNA_input3_A
*391 ANTENNA_input40_A
*392 ANTENNA_input41_A
*393 ANTENNA_input42_A
*394 ANTENNA_input43_A
*395 ANTENNA_input44_A
*396 ANTENNA_input45_A
*397 ANTENNA_input46_A
*398 ANTENNA_input47_A
*399 ANTENNA_input48_A
*400 ANTENNA_input49_A
*401 ANTENNA_input4_A
*402 ANTENNA_input50_A
*403 ANTENNA_input51_A
*404 ANTENNA_input52_A
*405 ANTENNA_input53_A
*406 ANTENNA_input54_A
*407 ANTENNA_input55_A
*408 ANTENNA_input56_A
*409 ANTENNA_input57_A
*410 ANTENNA_input58_A
*411 ANTENNA_input59_A
*412 ANTENNA_input5_A
*413 ANTENNA_input60_A
*414 ANTENNA_input61_A
*415 ANTENNA_input62_A
*416 ANTENNA_input63_A
*417 ANTENNA_input64_A
*418 ANTENNA_input65_A
*419 ANTENNA_input66_A
*420 ANTENNA_input67_A
*421 ANTENNA_input68_A
*422 ANTENNA_input69_A
*423 ANTENNA_input6_A
*424 ANTENNA_input70_A
*425 ANTENNA_input71_A
*426 ANTENNA_input72_A
*427 ANTENNA_input73_A
*428 ANTENNA_input74_A
*429 ANTENNA_input75_A
*430 ANTENNA_input7_A
*431 ANTENNA_input8_A
*432 ANTENNA_input9_A
*433 ANTENNA_output100_A
*434 ANTENNA_output101_A
*435 ANTENNA_output102_A
*436 ANTENNA_output103_A
*437 ANTENNA_output104_A
*438 ANTENNA_output105_A
*439 ANTENNA_output106_A
*440 ANTENNA_output107_A
*441 ANTENNA_output108_A
*442 ANTENNA_output109_A
*443 ANTENNA_output110_A
*444 ANTENNA_output111_A
*445 ANTENNA_output112_A
*446 ANTENNA_output113_A
*447 ANTENNA_output114_A
*448 ANTENNA_output115_A
*449 ANTENNA_output116_A
*450 ANTENNA_output117_A
*451 ANTENNA_output118_A
*452 ANTENNA_output119_A
*453 ANTENNA_output120_A
*454 ANTENNA_output121_A
*455 ANTENNA_output122_A
*456 ANTENNA_output123_A
*457 ANTENNA_output124_A
*458 ANTENNA_output125_A
*459 ANTENNA_output126_A
*460 ANTENNA_output127_A
*461 ANTENNA_output76_A
*462 ANTENNA_output77_A
*463 ANTENNA_output78_A
*464 ANTENNA_output79_A
*465 ANTENNA_output80_A
*466 ANTENNA_output81_A
*467 ANTENNA_output82_A
*468 ANTENNA_output83_A
*469 ANTENNA_output84_A
*470 ANTENNA_output94_A
*471 ANTENNA_output96_A
*472 ANTENNA_output97_A
*473 ANTENNA_output98_A
*474 ANTENNA_output99_A
*475 FILLER_0_1000
*476 FILLER_0_1004
*477 FILLER_0_101
*478 FILLER_0_1012
*479 FILLER_0_1018
*480 FILLER_0_1028
*481 FILLER_0_1037
*482 FILLER_0_1049
*483 FILLER_0_1060
*484 FILLER_0_1074
*485 FILLER_0_1078
*486 FILLER_0_1088
*487 FILLER_0_109
*488 FILLER_0_1102
*489 FILLER_0_1106
*490 FILLER_0_1116
*491 FILLER_0_1124
*492 FILLER_0_1128
*493 FILLER_0_1138
*494 FILLER_0_1144
*495 FILLER_0_1158
*496 FILLER_0_1165
*497 FILLER_0_117
*498 FILLER_0_1172
*499 FILLER_0_1177
*500 FILLER_0_1187
*501 FILLER_0_1200
*502 FILLER_0_1214
*503 FILLER_0_1221
*504 FILLER_0_1228
*505 FILLER_0_123
*506 FILLER_0_1242
*507 FILLER_0_1255
*508 FILLER_0_1259
*509 FILLER_0_1261
*510 FILLER_0_1269
*511 FILLER_0_1282
*512 FILLER_0_1298
*513 FILLER_0_1311
*514 FILLER_0_1315
*515 FILLER_0_1317
*516 FILLER_0_133
*517 FILLER_0_1330
*518 FILLER_0_1337
*519 FILLER_0_1343
*520 FILLER_0_1348
*521 FILLER_0_1354
*522 FILLER_0_1358
*523 FILLER_0_1368
*524 FILLER_0_1375
*525 FILLER_0_1388
*526 FILLER_0_139
*527 FILLER_0_1395
*528 FILLER_0_1399
*529 FILLER_0_1410
*530 FILLER_0_1423
*531 FILLER_0_1427
*532 FILLER_0_143
*533 FILLER_0_1432
*534 FILLER_0_1436
*535 FILLER_0_1446
*536 FILLER_0_1452
*537 FILLER_0_1466
*538 FILLER_0_147
*539 FILLER_0_1473
*540 FILLER_0_1479
*541 FILLER_0_1483
*542 FILLER_0_1488
*543 FILLER_0_1496
*544 FILLER_0_1500
*545 FILLER_0_1506
*546 FILLER_0_1513
*547 FILLER_0_1519
*548 FILLER_0_152
*549 FILLER_0_1525
*550 FILLER_0_1537
*551 FILLER_0_1544
*552 FILLER_0_1550
*553 FILLER_0_1557
*554 FILLER_0_1563
*555 FILLER_0_1567
*556 FILLER_0_1569
*557 FILLER_0_1576
*558 FILLER_0_158
*559 FILLER_0_1592
*560 FILLER_0_1599
*561 FILLER_0_166
*562 FILLER_0_173
*563 FILLER_0_179
*564 FILLER_0_185
*565 FILLER_0_19
*566 FILLER_0_190
*567 FILLER_0_197
*568 FILLER_0_201
*569 FILLER_0_209
*570 FILLER_0_217
*571 FILLER_0_220
*572 FILLER_0_229
*573 FILLER_0_239
*574 FILLER_0_247
*575 FILLER_0_251
*576 FILLER_0_253
*577 FILLER_0_258
*578 FILLER_0_266
*579 FILLER_0_27
*580 FILLER_0_276
*581 FILLER_0_285
*582 FILLER_0_29
*583 FILLER_0_293
*584 FILLER_0_296
*585 FILLER_0_3
*586 FILLER_0_304
*587 FILLER_0_309
*588 FILLER_0_315
*589 FILLER_0_323
*590 FILLER_0_329
*591 FILLER_0_33
*592 FILLER_0_332
*593 FILLER_0_337
*594 FILLER_0_342
*595 FILLER_0_354
*596 FILLER_0_360
*597 FILLER_0_369
*598 FILLER_0_375
*599 FILLER_0_38
*600 FILLER_0_380
*601 FILLER_0_393
*602 FILLER_0_399
*603 FILLER_0_411
*604 FILLER_0_416
*605 FILLER_0_425
*606 FILLER_0_437
*607 FILLER_0_44
*608 FILLER_0_445
*609 FILLER_0_449
*610 FILLER_0_456
*611 FILLER_0_468
*612 FILLER_0_472
*613 FILLER_0_481
*614 FILLER_0_489
*615 FILLER_0_494
*616 FILLER_0_502
*617 FILLER_0_505
*618 FILLER_0_513
*619 FILLER_0_525
*620 FILLER_0_528
*621 FILLER_0_537
*622 FILLER_0_543
*623 FILLER_0_551
*624 FILLER_0_559
*625 FILLER_0_561
*626 FILLER_0_565
*627 FILLER_0_570
*628 FILLER_0_584
*629 FILLER_0_593
*630 FILLER_0_597
*631 FILLER_0_600
*632 FILLER_0_608
*633 FILLER_0_61
*634 FILLER_0_619
*635 FILLER_0_627
*636 FILLER_0_635
*637 FILLER_0_640
*638 FILLER_0_649
*639 FILLER_0_657
*640 FILLER_0_665
*641 FILLER_0_67
*642 FILLER_0_671
*643 FILLER_0_673
*644 FILLER_0_676
*645 FILLER_0_684
*646 FILLER_0_692
*647 FILLER_0_696
*648 FILLER_0_705
*649 FILLER_0_71
*650 FILLER_0_711
*651 FILLER_0_714
*652 FILLER_0_722
*653 FILLER_0_729
*654 FILLER_0_733
*655 FILLER_0_741
*656 FILLER_0_749
*657 FILLER_0_752
*658 FILLER_0_76
*659 FILLER_0_761
*660 FILLER_0_771
*661 FILLER_0_779
*662 FILLER_0_783
*663 FILLER_0_785
*664 FILLER_0_791
*665 FILLER_0_796
*666 FILLER_0_804
*667 FILLER_0_817
*668 FILLER_0_825
*669 FILLER_0_831
*670 FILLER_0_836
*671 FILLER_0_845
*672 FILLER_0_855
*673 FILLER_0_863
*674 FILLER_0_867
*675 FILLER_0_869
*676 FILLER_0_87
*677 FILLER_0_874
*678 FILLER_0_882
*679 FILLER_0_892
*680 FILLER_0_901
*681 FILLER_0_907
*682 FILLER_0_912
*683 FILLER_0_920
*684 FILLER_0_925
*685 FILLER_0_931
*686 FILLER_0_939
*687 FILLER_0_946
*688 FILLER_0_95
*689 FILLER_0_957
*690 FILLER_0_965
*691 FILLER_0_973
*692 FILLER_0_979
*693 FILLER_0_981
*694 FILLER_0_988
*695 FILLER_10_1005
*696 FILLER_10_1017
*697 FILLER_10_1029
*698 FILLER_10_1035
*699 FILLER_10_1037
*700 FILLER_10_1049
*701 FILLER_10_1061
*702 FILLER_10_1073
*703 FILLER_10_1085
*704 FILLER_10_109
*705 FILLER_10_1091
*706 FILLER_10_1093
*707 FILLER_10_1105
*708 FILLER_10_1117
*709 FILLER_10_1129
*710 FILLER_10_1141
*711 FILLER_10_1147
*712 FILLER_10_1149
*713 FILLER_10_1161
*714 FILLER_10_1173
*715 FILLER_10_1185
*716 FILLER_10_1197
*717 FILLER_10_1203
*718 FILLER_10_1205
*719 FILLER_10_121
*720 FILLER_10_1217
*721 FILLER_10_1229
*722 FILLER_10_1241
*723 FILLER_10_1253
*724 FILLER_10_1259
*725 FILLER_10_1261
*726 FILLER_10_1273
*727 FILLER_10_1285
*728 FILLER_10_1297
*729 FILLER_10_1309
*730 FILLER_10_1315
*731 FILLER_10_1317
*732 FILLER_10_1329
*733 FILLER_10_133
*734 FILLER_10_1341
*735 FILLER_10_1353
*736 FILLER_10_1365
*737 FILLER_10_1371
*738 FILLER_10_1373
*739 FILLER_10_1385
*740 FILLER_10_139
*741 FILLER_10_1397
*742 FILLER_10_1409
*743 FILLER_10_141
*744 FILLER_10_1421
*745 FILLER_10_1427
*746 FILLER_10_1429
*747 FILLER_10_1441
*748 FILLER_10_1453
*749 FILLER_10_1465
*750 FILLER_10_1477
*751 FILLER_10_1483
*752 FILLER_10_1485
*753 FILLER_10_1497
*754 FILLER_10_15
*755 FILLER_10_1509
*756 FILLER_10_1521
*757 FILLER_10_153
*758 FILLER_10_1533
*759 FILLER_10_1539
*760 FILLER_10_1541
*761 FILLER_10_1553
*762 FILLER_10_1565
*763 FILLER_10_1577
*764 FILLER_10_1589
*765 FILLER_10_1595
*766 FILLER_10_1597
*767 FILLER_10_165
*768 FILLER_10_177
*769 FILLER_10_189
*770 FILLER_10_195
*771 FILLER_10_197
*772 FILLER_10_209
*773 FILLER_10_221
*774 FILLER_10_233
*775 FILLER_10_245
*776 FILLER_10_251
*777 FILLER_10_253
*778 FILLER_10_265
*779 FILLER_10_27
*780 FILLER_10_277
*781 FILLER_10_289
*782 FILLER_10_29
*783 FILLER_10_3
*784 FILLER_10_301
*785 FILLER_10_307
*786 FILLER_10_309
*787 FILLER_10_321
*788 FILLER_10_333
*789 FILLER_10_345
*790 FILLER_10_357
*791 FILLER_10_363
*792 FILLER_10_365
*793 FILLER_10_377
*794 FILLER_10_389
*795 FILLER_10_401
*796 FILLER_10_41
*797 FILLER_10_413
*798 FILLER_10_419
*799 FILLER_10_421
*800 FILLER_10_433
*801 FILLER_10_445
*802 FILLER_10_457
*803 FILLER_10_469
*804 FILLER_10_475
*805 FILLER_10_477
*806 FILLER_10_489
*807 FILLER_10_501
*808 FILLER_10_513
*809 FILLER_10_525
*810 FILLER_10_53
*811 FILLER_10_531
*812 FILLER_10_533
*813 FILLER_10_545
*814 FILLER_10_557
*815 FILLER_10_569
*816 FILLER_10_581
*817 FILLER_10_587
*818 FILLER_10_589
*819 FILLER_10_601
*820 FILLER_10_613
*821 FILLER_10_625
*822 FILLER_10_637
*823 FILLER_10_643
*824 FILLER_10_645
*825 FILLER_10_65
*826 FILLER_10_657
*827 FILLER_10_669
*828 FILLER_10_681
*829 FILLER_10_693
*830 FILLER_10_699
*831 FILLER_10_701
*832 FILLER_10_713
*833 FILLER_10_725
*834 FILLER_10_737
*835 FILLER_10_749
*836 FILLER_10_755
*837 FILLER_10_757
*838 FILLER_10_769
*839 FILLER_10_77
*840 FILLER_10_781
*841 FILLER_10_793
*842 FILLER_10_805
*843 FILLER_10_811
*844 FILLER_10_813
*845 FILLER_10_825
*846 FILLER_10_83
*847 FILLER_10_837
*848 FILLER_10_849
*849 FILLER_10_85
*850 FILLER_10_861
*851 FILLER_10_867
*852 FILLER_10_869
*853 FILLER_10_881
*854 FILLER_10_893
*855 FILLER_10_905
*856 FILLER_10_917
*857 FILLER_10_923
*858 FILLER_10_925
*859 FILLER_10_937
*860 FILLER_10_949
*861 FILLER_10_961
*862 FILLER_10_97
*863 FILLER_10_973
*864 FILLER_10_979
*865 FILLER_10_981
*866 FILLER_10_993
*867 FILLER_11_1001
*868 FILLER_11_1007
*869 FILLER_11_1009
*870 FILLER_11_1021
*871 FILLER_11_1033
*872 FILLER_11_1045
*873 FILLER_11_105
*874 FILLER_11_1057
*875 FILLER_11_1063
*876 FILLER_11_1065
*877 FILLER_11_1077
*878 FILLER_11_1089
*879 FILLER_11_1101
*880 FILLER_11_111
*881 FILLER_11_1113
*882 FILLER_11_1119
*883 FILLER_11_1121
*884 FILLER_11_113
*885 FILLER_11_1133
*886 FILLER_11_1145
*887 FILLER_11_1157
*888 FILLER_11_1169
*889 FILLER_11_1175
*890 FILLER_11_1177
*891 FILLER_11_1189
*892 FILLER_11_1201
*893 FILLER_11_1213
*894 FILLER_11_1225
*895 FILLER_11_1231
*896 FILLER_11_1233
*897 FILLER_11_1245
*898 FILLER_11_125
*899 FILLER_11_1257
*900 FILLER_11_1269
*901 FILLER_11_1281
*902 FILLER_11_1287
*903 FILLER_11_1289
*904 FILLER_11_1301
*905 FILLER_11_1313
*906 FILLER_11_1325
*907 FILLER_11_1337
*908 FILLER_11_1343
*909 FILLER_11_1345
*910 FILLER_11_1357
*911 FILLER_11_1369
*912 FILLER_11_137
*913 FILLER_11_1381
*914 FILLER_11_1393
*915 FILLER_11_1399
*916 FILLER_11_1401
*917 FILLER_11_1413
*918 FILLER_11_1425
*919 FILLER_11_1437
*920 FILLER_11_1449
*921 FILLER_11_1455
*922 FILLER_11_1457
*923 FILLER_11_1469
*924 FILLER_11_1481
*925 FILLER_11_149
*926 FILLER_11_1493
*927 FILLER_11_15
*928 FILLER_11_1505
*929 FILLER_11_1511
*930 FILLER_11_1513
*931 FILLER_11_1525
*932 FILLER_11_1537
*933 FILLER_11_1549
*934 FILLER_11_1561
*935 FILLER_11_1567
*936 FILLER_11_1569
*937 FILLER_11_1581
*938 FILLER_11_1591
*939 FILLER_11_1599
*940 FILLER_11_161
*941 FILLER_11_167
*942 FILLER_11_169
*943 FILLER_11_181
*944 FILLER_11_193
*945 FILLER_11_205
*946 FILLER_11_217
*947 FILLER_11_223
*948 FILLER_11_225
*949 FILLER_11_237
*950 FILLER_11_249
*951 FILLER_11_261
*952 FILLER_11_27
*953 FILLER_11_273
*954 FILLER_11_279
*955 FILLER_11_281
*956 FILLER_11_293
*957 FILLER_11_3
*958 FILLER_11_305
*959 FILLER_11_317
*960 FILLER_11_329
*961 FILLER_11_335
*962 FILLER_11_337
*963 FILLER_11_349
*964 FILLER_11_361
*965 FILLER_11_373
*966 FILLER_11_385
*967 FILLER_11_39
*968 FILLER_11_391
*969 FILLER_11_393
*970 FILLER_11_405
*971 FILLER_11_417
*972 FILLER_11_429
*973 FILLER_11_441
*974 FILLER_11_447
*975 FILLER_11_449
*976 FILLER_11_461
*977 FILLER_11_473
*978 FILLER_11_485
*979 FILLER_11_497
*980 FILLER_11_503
*981 FILLER_11_505
*982 FILLER_11_51
*983 FILLER_11_517
*984 FILLER_11_529
*985 FILLER_11_541
*986 FILLER_11_55
*987 FILLER_11_553
*988 FILLER_11_559
*989 FILLER_11_561
*990 FILLER_11_57
*991 FILLER_11_573
*992 FILLER_11_585
*993 FILLER_11_597
*994 FILLER_11_609
*995 FILLER_11_615
*996 FILLER_11_617
*997 FILLER_11_629
*998 FILLER_11_641
*999 FILLER_11_653
*1000 FILLER_11_665
*1001 FILLER_11_671
*1002 FILLER_11_673
*1003 FILLER_11_685
*1004 FILLER_11_69
*1005 FILLER_11_697
*1006 FILLER_11_709
*1007 FILLER_11_721
*1008 FILLER_11_727
*1009 FILLER_11_729
*1010 FILLER_11_741
*1011 FILLER_11_753
*1012 FILLER_11_765
*1013 FILLER_11_777
*1014 FILLER_11_783
*1015 FILLER_11_785
*1016 FILLER_11_797
*1017 FILLER_11_809
*1018 FILLER_11_81
*1019 FILLER_11_821
*1020 FILLER_11_833
*1021 FILLER_11_839
*1022 FILLER_11_841
*1023 FILLER_11_853
*1024 FILLER_11_865
*1025 FILLER_11_877
*1026 FILLER_11_889
*1027 FILLER_11_895
*1028 FILLER_11_897
*1029 FILLER_11_909
*1030 FILLER_11_921
*1031 FILLER_11_93
*1032 FILLER_11_933
*1033 FILLER_11_945
*1034 FILLER_11_951
*1035 FILLER_11_953
*1036 FILLER_11_965
*1037 FILLER_11_977
*1038 FILLER_11_989
*1039 FILLER_12_1005
*1040 FILLER_12_1017
*1041 FILLER_12_1029
*1042 FILLER_12_1035
*1043 FILLER_12_1037
*1044 FILLER_12_1049
*1045 FILLER_12_1061
*1046 FILLER_12_1073
*1047 FILLER_12_1085
*1048 FILLER_12_109
*1049 FILLER_12_1091
*1050 FILLER_12_1093
*1051 FILLER_12_1105
*1052 FILLER_12_1117
*1053 FILLER_12_1129
*1054 FILLER_12_1141
*1055 FILLER_12_1147
*1056 FILLER_12_1149
*1057 FILLER_12_1161
*1058 FILLER_12_1173
*1059 FILLER_12_1185
*1060 FILLER_12_1192
*1061 FILLER_12_1205
*1062 FILLER_12_121
*1063 FILLER_12_1213
*1064 FILLER_12_1219
*1065 FILLER_12_1231
*1066 FILLER_12_1243
*1067 FILLER_12_1255
*1068 FILLER_12_1259
*1069 FILLER_12_1261
*1070 FILLER_12_1273
*1071 FILLER_12_1285
*1072 FILLER_12_1297
*1073 FILLER_12_1309
*1074 FILLER_12_1315
*1075 FILLER_12_1317
*1076 FILLER_12_1329
*1077 FILLER_12_133
*1078 FILLER_12_1341
*1079 FILLER_12_1353
*1080 FILLER_12_1365
*1081 FILLER_12_1371
*1082 FILLER_12_1373
*1083 FILLER_12_1385
*1084 FILLER_12_139
*1085 FILLER_12_1397
*1086 FILLER_12_1409
*1087 FILLER_12_141
*1088 FILLER_12_1421
*1089 FILLER_12_1427
*1090 FILLER_12_1429
*1091 FILLER_12_1441
*1092 FILLER_12_1453
*1093 FILLER_12_1465
*1094 FILLER_12_1477
*1095 FILLER_12_1483
*1096 FILLER_12_1485
*1097 FILLER_12_1497
*1098 FILLER_12_15
*1099 FILLER_12_1509
*1100 FILLER_12_1521
*1101 FILLER_12_153
*1102 FILLER_12_1533
*1103 FILLER_12_1539
*1104 FILLER_12_1541
*1105 FILLER_12_1553
*1106 FILLER_12_1565
*1107 FILLER_12_1577
*1108 FILLER_12_1589
*1109 FILLER_12_1595
*1110 FILLER_12_1597
*1111 FILLER_12_165
*1112 FILLER_12_177
*1113 FILLER_12_189
*1114 FILLER_12_195
*1115 FILLER_12_197
*1116 FILLER_12_209
*1117 FILLER_12_221
*1118 FILLER_12_233
*1119 FILLER_12_245
*1120 FILLER_12_251
*1121 FILLER_12_253
*1122 FILLER_12_265
*1123 FILLER_12_27
*1124 FILLER_12_277
*1125 FILLER_12_289
*1126 FILLER_12_29
*1127 FILLER_12_3
*1128 FILLER_12_301
*1129 FILLER_12_307
*1130 FILLER_12_309
*1131 FILLER_12_321
*1132 FILLER_12_333
*1133 FILLER_12_345
*1134 FILLER_12_357
*1135 FILLER_12_363
*1136 FILLER_12_365
*1137 FILLER_12_377
*1138 FILLER_12_389
*1139 FILLER_12_401
*1140 FILLER_12_41
*1141 FILLER_12_413
*1142 FILLER_12_419
*1143 FILLER_12_421
*1144 FILLER_12_433
*1145 FILLER_12_445
*1146 FILLER_12_457
*1147 FILLER_12_469
*1148 FILLER_12_475
*1149 FILLER_12_477
*1150 FILLER_12_489
*1151 FILLER_12_501
*1152 FILLER_12_513
*1153 FILLER_12_525
*1154 FILLER_12_53
*1155 FILLER_12_531
*1156 FILLER_12_533
*1157 FILLER_12_545
*1158 FILLER_12_557
*1159 FILLER_12_569
*1160 FILLER_12_581
*1161 FILLER_12_587
*1162 FILLER_12_589
*1163 FILLER_12_601
*1164 FILLER_12_613
*1165 FILLER_12_625
*1166 FILLER_12_637
*1167 FILLER_12_643
*1168 FILLER_12_645
*1169 FILLER_12_65
*1170 FILLER_12_657
*1171 FILLER_12_669
*1172 FILLER_12_681
*1173 FILLER_12_693
*1174 FILLER_12_699
*1175 FILLER_12_701
*1176 FILLER_12_713
*1177 FILLER_12_725
*1178 FILLER_12_737
*1179 FILLER_12_749
*1180 FILLER_12_755
*1181 FILLER_12_757
*1182 FILLER_12_769
*1183 FILLER_12_77
*1184 FILLER_12_781
*1185 FILLER_12_793
*1186 FILLER_12_805
*1187 FILLER_12_811
*1188 FILLER_12_813
*1189 FILLER_12_825
*1190 FILLER_12_83
*1191 FILLER_12_837
*1192 FILLER_12_849
*1193 FILLER_12_85
*1194 FILLER_12_861
*1195 FILLER_12_867
*1196 FILLER_12_869
*1197 FILLER_12_881
*1198 FILLER_12_893
*1199 FILLER_12_905
*1200 FILLER_12_917
*1201 FILLER_12_923
*1202 FILLER_12_925
*1203 FILLER_12_937
*1204 FILLER_12_949
*1205 FILLER_12_961
*1206 FILLER_12_97
*1207 FILLER_12_973
*1208 FILLER_12_979
*1209 FILLER_12_981
*1210 FILLER_12_993
*1211 FILLER_13_1001
*1212 FILLER_13_1007
*1213 FILLER_13_1009
*1214 FILLER_13_1021
*1215 FILLER_13_1033
*1216 FILLER_13_1045
*1217 FILLER_13_105
*1218 FILLER_13_1057
*1219 FILLER_13_1063
*1220 FILLER_13_1065
*1221 FILLER_13_1077
*1222 FILLER_13_1089
*1223 FILLER_13_1101
*1224 FILLER_13_111
*1225 FILLER_13_1113
*1226 FILLER_13_1119
*1227 FILLER_13_1121
*1228 FILLER_13_113
*1229 FILLER_13_1133
*1230 FILLER_13_1145
*1231 FILLER_13_1157
*1232 FILLER_13_1169
*1233 FILLER_13_1175
*1234 FILLER_13_1177
*1235 FILLER_13_1189
*1236 FILLER_13_1201
*1237 FILLER_13_1213
*1238 FILLER_13_1225
*1239 FILLER_13_1231
*1240 FILLER_13_1233
*1241 FILLER_13_1245
*1242 FILLER_13_125
*1243 FILLER_13_1257
*1244 FILLER_13_1269
*1245 FILLER_13_1281
*1246 FILLER_13_1287
*1247 FILLER_13_1289
*1248 FILLER_13_1301
*1249 FILLER_13_1313
*1250 FILLER_13_1325
*1251 FILLER_13_1337
*1252 FILLER_13_1343
*1253 FILLER_13_1345
*1254 FILLER_13_1357
*1255 FILLER_13_1369
*1256 FILLER_13_137
*1257 FILLER_13_1381
*1258 FILLER_13_1393
*1259 FILLER_13_1399
*1260 FILLER_13_1401
*1261 FILLER_13_1413
*1262 FILLER_13_1425
*1263 FILLER_13_1437
*1264 FILLER_13_1449
*1265 FILLER_13_1455
*1266 FILLER_13_1457
*1267 FILLER_13_1469
*1268 FILLER_13_1481
*1269 FILLER_13_149
*1270 FILLER_13_1493
*1271 FILLER_13_15
*1272 FILLER_13_1505
*1273 FILLER_13_1511
*1274 FILLER_13_1513
*1275 FILLER_13_1525
*1276 FILLER_13_1537
*1277 FILLER_13_1549
*1278 FILLER_13_1561
*1279 FILLER_13_1567
*1280 FILLER_13_1569
*1281 FILLER_13_1581
*1282 FILLER_13_1591
*1283 FILLER_13_1599
*1284 FILLER_13_161
*1285 FILLER_13_167
*1286 FILLER_13_169
*1287 FILLER_13_181
*1288 FILLER_13_193
*1289 FILLER_13_205
*1290 FILLER_13_217
*1291 FILLER_13_223
*1292 FILLER_13_225
*1293 FILLER_13_237
*1294 FILLER_13_249
*1295 FILLER_13_261
*1296 FILLER_13_27
*1297 FILLER_13_273
*1298 FILLER_13_279
*1299 FILLER_13_281
*1300 FILLER_13_293
*1301 FILLER_13_3
*1302 FILLER_13_305
*1303 FILLER_13_317
*1304 FILLER_13_329
*1305 FILLER_13_335
*1306 FILLER_13_337
*1307 FILLER_13_349
*1308 FILLER_13_361
*1309 FILLER_13_373
*1310 FILLER_13_385
*1311 FILLER_13_39
*1312 FILLER_13_391
*1313 FILLER_13_393
*1314 FILLER_13_405
*1315 FILLER_13_417
*1316 FILLER_13_429
*1317 FILLER_13_441
*1318 FILLER_13_447
*1319 FILLER_13_449
*1320 FILLER_13_461
*1321 FILLER_13_473
*1322 FILLER_13_485
*1323 FILLER_13_497
*1324 FILLER_13_503
*1325 FILLER_13_505
*1326 FILLER_13_51
*1327 FILLER_13_517
*1328 FILLER_13_529
*1329 FILLER_13_541
*1330 FILLER_13_55
*1331 FILLER_13_553
*1332 FILLER_13_559
*1333 FILLER_13_561
*1334 FILLER_13_57
*1335 FILLER_13_573
*1336 FILLER_13_585
*1337 FILLER_13_597
*1338 FILLER_13_609
*1339 FILLER_13_615
*1340 FILLER_13_617
*1341 FILLER_13_629
*1342 FILLER_13_641
*1343 FILLER_13_653
*1344 FILLER_13_665
*1345 FILLER_13_671
*1346 FILLER_13_673
*1347 FILLER_13_685
*1348 FILLER_13_69
*1349 FILLER_13_697
*1350 FILLER_13_709
*1351 FILLER_13_721
*1352 FILLER_13_727
*1353 FILLER_13_729
*1354 FILLER_13_741
*1355 FILLER_13_753
*1356 FILLER_13_765
*1357 FILLER_13_777
*1358 FILLER_13_783
*1359 FILLER_13_785
*1360 FILLER_13_797
*1361 FILLER_13_809
*1362 FILLER_13_81
*1363 FILLER_13_821
*1364 FILLER_13_833
*1365 FILLER_13_839
*1366 FILLER_13_841
*1367 FILLER_13_853
*1368 FILLER_13_865
*1369 FILLER_13_877
*1370 FILLER_13_889
*1371 FILLER_13_895
*1372 FILLER_13_897
*1373 FILLER_13_909
*1374 FILLER_13_921
*1375 FILLER_13_93
*1376 FILLER_13_933
*1377 FILLER_13_945
*1378 FILLER_13_951
*1379 FILLER_13_953
*1380 FILLER_13_965
*1381 FILLER_13_977
*1382 FILLER_13_989
*1383 FILLER_14_1005
*1384 FILLER_14_1017
*1385 FILLER_14_1029
*1386 FILLER_14_1035
*1387 FILLER_14_1037
*1388 FILLER_14_1049
*1389 FILLER_14_1061
*1390 FILLER_14_1073
*1391 FILLER_14_1085
*1392 FILLER_14_109
*1393 FILLER_14_1091
*1394 FILLER_14_1093
*1395 FILLER_14_1105
*1396 FILLER_14_1117
*1397 FILLER_14_1129
*1398 FILLER_14_1141
*1399 FILLER_14_1147
*1400 FILLER_14_1149
*1401 FILLER_14_1161
*1402 FILLER_14_1173
*1403 FILLER_14_1185
*1404 FILLER_14_1197
*1405 FILLER_14_1203
*1406 FILLER_14_1205
*1407 FILLER_14_121
*1408 FILLER_14_1217
*1409 FILLER_14_1229
*1410 FILLER_14_1241
*1411 FILLER_14_1253
*1412 FILLER_14_1259
*1413 FILLER_14_1261
*1414 FILLER_14_1273
*1415 FILLER_14_1285
*1416 FILLER_14_1297
*1417 FILLER_14_1309
*1418 FILLER_14_1315
*1419 FILLER_14_1317
*1420 FILLER_14_1329
*1421 FILLER_14_133
*1422 FILLER_14_1341
*1423 FILLER_14_1353
*1424 FILLER_14_1365
*1425 FILLER_14_1371
*1426 FILLER_14_1373
*1427 FILLER_14_1385
*1428 FILLER_14_139
*1429 FILLER_14_1397
*1430 FILLER_14_1409
*1431 FILLER_14_141
*1432 FILLER_14_1421
*1433 FILLER_14_1427
*1434 FILLER_14_1429
*1435 FILLER_14_1441
*1436 FILLER_14_1453
*1437 FILLER_14_1465
*1438 FILLER_14_1477
*1439 FILLER_14_1483
*1440 FILLER_14_1485
*1441 FILLER_14_1497
*1442 FILLER_14_15
*1443 FILLER_14_1509
*1444 FILLER_14_1521
*1445 FILLER_14_153
*1446 FILLER_14_1533
*1447 FILLER_14_1539
*1448 FILLER_14_1541
*1449 FILLER_14_1553
*1450 FILLER_14_1565
*1451 FILLER_14_1577
*1452 FILLER_14_1589
*1453 FILLER_14_1595
*1454 FILLER_14_1599
*1455 FILLER_14_165
*1456 FILLER_14_177
*1457 FILLER_14_189
*1458 FILLER_14_195
*1459 FILLER_14_197
*1460 FILLER_14_209
*1461 FILLER_14_221
*1462 FILLER_14_233
*1463 FILLER_14_245
*1464 FILLER_14_251
*1465 FILLER_14_253
*1466 FILLER_14_265
*1467 FILLER_14_27
*1468 FILLER_14_277
*1469 FILLER_14_289
*1470 FILLER_14_29
*1471 FILLER_14_3
*1472 FILLER_14_301
*1473 FILLER_14_307
*1474 FILLER_14_309
*1475 FILLER_14_321
*1476 FILLER_14_333
*1477 FILLER_14_345
*1478 FILLER_14_357
*1479 FILLER_14_363
*1480 FILLER_14_365
*1481 FILLER_14_377
*1482 FILLER_14_389
*1483 FILLER_14_401
*1484 FILLER_14_41
*1485 FILLER_14_413
*1486 FILLER_14_419
*1487 FILLER_14_421
*1488 FILLER_14_433
*1489 FILLER_14_445
*1490 FILLER_14_457
*1491 FILLER_14_469
*1492 FILLER_14_475
*1493 FILLER_14_477
*1494 FILLER_14_489
*1495 FILLER_14_501
*1496 FILLER_14_513
*1497 FILLER_14_525
*1498 FILLER_14_53
*1499 FILLER_14_531
*1500 FILLER_14_533
*1501 FILLER_14_545
*1502 FILLER_14_557
*1503 FILLER_14_569
*1504 FILLER_14_581
*1505 FILLER_14_587
*1506 FILLER_14_589
*1507 FILLER_14_601
*1508 FILLER_14_613
*1509 FILLER_14_625
*1510 FILLER_14_637
*1511 FILLER_14_643
*1512 FILLER_14_645
*1513 FILLER_14_65
*1514 FILLER_14_657
*1515 FILLER_14_669
*1516 FILLER_14_681
*1517 FILLER_14_693
*1518 FILLER_14_699
*1519 FILLER_14_701
*1520 FILLER_14_713
*1521 FILLER_14_725
*1522 FILLER_14_737
*1523 FILLER_14_749
*1524 FILLER_14_755
*1525 FILLER_14_757
*1526 FILLER_14_769
*1527 FILLER_14_77
*1528 FILLER_14_781
*1529 FILLER_14_793
*1530 FILLER_14_805
*1531 FILLER_14_811
*1532 FILLER_14_813
*1533 FILLER_14_825
*1534 FILLER_14_83
*1535 FILLER_14_837
*1536 FILLER_14_849
*1537 FILLER_14_85
*1538 FILLER_14_861
*1539 FILLER_14_867
*1540 FILLER_14_869
*1541 FILLER_14_881
*1542 FILLER_14_893
*1543 FILLER_14_905
*1544 FILLER_14_917
*1545 FILLER_14_923
*1546 FILLER_14_925
*1547 FILLER_14_937
*1548 FILLER_14_949
*1549 FILLER_14_961
*1550 FILLER_14_97
*1551 FILLER_14_973
*1552 FILLER_14_979
*1553 FILLER_14_981
*1554 FILLER_14_993
*1555 FILLER_15_1001
*1556 FILLER_15_1007
*1557 FILLER_15_1009
*1558 FILLER_15_1021
*1559 FILLER_15_1033
*1560 FILLER_15_1045
*1561 FILLER_15_105
*1562 FILLER_15_1057
*1563 FILLER_15_1063
*1564 FILLER_15_1065
*1565 FILLER_15_1077
*1566 FILLER_15_1089
*1567 FILLER_15_1101
*1568 FILLER_15_111
*1569 FILLER_15_1113
*1570 FILLER_15_1119
*1571 FILLER_15_1121
*1572 FILLER_15_113
*1573 FILLER_15_1133
*1574 FILLER_15_1145
*1575 FILLER_15_1157
*1576 FILLER_15_1169
*1577 FILLER_15_1175
*1578 FILLER_15_1177
*1579 FILLER_15_1189
*1580 FILLER_15_1201
*1581 FILLER_15_1213