*SPEF "ieee 1481-1999"
*DESIGN "user_project_wrapper"
*DATE "11:11:11 Fri 11 11, 1111"
*VENDOR "OpenRCX"
*PROGRAM "Parallel Extraction"
*VERSION "1.0"
*DESIGN_FLOW "NAME_SCOPE LOCAL" "PIN_CAP NONE"
*DIVIDER /
*DELIMITER :
*BUS_DELIMITER []
*T_UNIT 1 NS
*C_UNIT 1 PF
*R_UNIT 1 OHM
*L_UNIT 1 HENRY

*NAME_MAP
*1 analog_io[0]
*2 analog_io[10]
*3 analog_io[11]
*4 analog_io[12]
*5 analog_io[13]
*6 analog_io[14]
*7 analog_io[15]
*8 analog_io[16]
*9 analog_io[17]
*10 analog_io[18]
*11 analog_io[19]
*12 analog_io[1]
*13 analog_io[20]
*14 analog_io[21]
*15 analog_io[22]
*16 analog_io[23]
*17 analog_io[24]
*18 analog_io[25]
*19 analog_io[26]
*20 analog_io[27]
*21 analog_io[28]
*22 analog_io[2]
*23 analog_io[3]
*24 analog_io[4]
*25 analog_io[5]
*26 analog_io[6]
*27 analog_io[7]
*28 analog_io[8]
*29 analog_io[9]
*30 io_in[0]
*31 io_in[10]
*32 io_in[11]
*33 io_in[12]
*34 io_in[13]
*35 io_in[14]
*36 io_in[15]
*37 io_in[16]
*38 io_in[17]
*39 io_in[18]
*40 io_in[19]
*41 io_in[1]
*42 io_in[20]
*43 io_in[21]
*44 io_in[22]
*45 io_in[23]
*46 io_in[24]
*47 io_in[25]
*48 io_in[26]
*49 io_in[27]
*50 io_in[28]
*51 io_in[29]
*52 io_in[2]
*53 io_in[30]
*54 io_in[31]
*55 io_in[32]
*56 io_in[33]
*57 io_in[34]
*58 io_in[35]
*59 io_in[36]
*60 io_in[37]
*61 io_in[3]
*62 io_in[4]
*63 io_in[5]
*64 io_in[6]
*65 io_in[7]
*66 io_in[8]
*67 io_in[9]
*68 io_oeb[0]
*69 io_oeb[10]
*70 io_oeb[11]
*71 io_oeb[12]
*72 io_oeb[13]
*73 io_oeb[14]
*74 io_oeb[15]
*75 io_oeb[16]
*76 io_oeb[17]
*77 io_oeb[18]
*78 io_oeb[19]
*79 io_oeb[1]
*80 io_oeb[20]
*81 io_oeb[21]
*82 io_oeb[22]
*83 io_oeb[23]
*84 io_oeb[24]
*85 io_oeb[25]
*86 io_oeb[26]
*87 io_oeb[27]
*88 io_oeb[28]
*89 io_oeb[29]
*90 io_oeb[2]
*91 io_oeb[30]
*92 io_oeb[31]
*93 io_oeb[32]
*94 io_oeb[33]
*95 io_oeb[34]
*96 io_oeb[35]
*97 io_oeb[36]
*98 io_oeb[37]
*99 io_oeb[3]
*100 io_oeb[4]
*101 io_oeb[5]
*102 io_oeb[6]
*103 io_oeb[7]
*104 io_oeb[8]
*105 io_oeb[9]
*106 io_out[0]
*107 io_out[10]
*108 io_out[11]
*109 io_out[12]
*110 io_out[13]
*111 io_out[14]
*112 io_out[15]
*113 io_out[16]
*114 io_out[17]
*115 io_out[18]
*116 io_out[19]
*117 io_out[1]
*118 io_out[20]
*119 io_out[21]
*120 io_out[22]
*121 io_out[23]
*122 io_out[24]
*123 io_out[25]
*124 io_out[26]
*125 io_out[27]
*126 io_out[28]
*127 io_out[29]
*128 io_out[2]
*129 io_out[30]
*130 io_out[31]
*131 io_out[32]
*132 io_out[33]
*133 io_out[34]
*134 io_out[35]
*135 io_out[36]
*136 io_out[37]
*137 io_out[3]
*138 io_out[4]
*139 io_out[5]
*140 io_out[6]
*141 io_out[7]
*142 io_out[8]
*143 io_out[9]
*144 la_data_in[0]
*145 la_data_in[100]
*146 la_data_in[101]
*147 la_data_in[102]
*148 la_data_in[103]
*149 la_data_in[104]
*150 la_data_in[105]
*151 la_data_in[106]
*152 la_data_in[107]
*153 la_data_in[108]
*154 la_data_in[109]
*155 la_data_in[10]
*156 la_data_in[110]
*157 la_data_in[111]
*158 la_data_in[112]
*159 la_data_in[113]
*160 la_data_in[114]
*161 la_data_in[115]
*162 la_data_in[116]
*163 la_data_in[117]
*164 la_data_in[118]
*165 la_data_in[119]
*166 la_data_in[11]
*167 la_data_in[120]
*168 la_data_in[121]
*169 la_data_in[122]
*170 la_data_in[123]
*171 la_data_in[124]
*172 la_data_in[125]
*173 la_data_in[126]
*174 la_data_in[127]
*175 la_data_in[12]
*176 la_data_in[13]
*177 la_data_in[14]
*178 la_data_in[15]
*179 la_data_in[16]
*180 la_data_in[17]
*181 la_data_in[18]
*182 la_data_in[19]
*183 la_data_in[1]
*184 la_data_in[20]
*185 la_data_in[21]
*186 la_data_in[22]
*187 la_data_in[23]
*188 la_data_in[24]
*189 la_data_in[25]
*190 la_data_in[26]
*191 la_data_in[27]
*192 la_data_in[28]
*193 la_data_in[29]
*194 la_data_in[2]
*195 la_data_in[30]
*196 la_data_in[31]
*197 la_data_in[32]
*198 la_data_in[33]
*199 la_data_in[34]
*200 la_data_in[35]
*201 la_data_in[36]
*202 la_data_in[37]
*203 la_data_in[38]
*204 la_data_in[39]
*205 la_data_in[3]
*206 la_data_in[40]
*207 la_data_in[41]
*208 la_data_in[42]
*209 la_data_in[43]
*210 la_data_in[44]
*211 la_data_in[45]
*212 la_data_in[46]
*213 la_data_in[47]
*214 la_data_in[48]
*215 la_data_in[49]
*216 la_data_in[4]
*217 la_data_in[50]
*218 la_data_in[51]
*219 la_data_in[52]
*220 la_data_in[53]
*221 la_data_in[54]
*222 la_data_in[55]
*223 la_data_in[56]
*224 la_data_in[57]
*225 la_data_in[58]
*226 la_data_in[59]
*227 la_data_in[5]
*228 la_data_in[60]
*229 la_data_in[61]
*230 la_data_in[62]
*231 la_data_in[63]
*232 la_data_in[64]
*233 la_data_in[65]
*234 la_data_in[66]
*235 la_data_in[67]
*236 la_data_in[68]
*237 la_data_in[69]
*238 la_data_in[6]
*239 la_data_in[70]
*240 la_data_in[71]
*241 la_data_in[72]
*242 la_data_in[73]
*243 la_data_in[74]
*244 la_data_in[75]
*245 la_data_in[76]
*246 la_data_in[77]
*247 la_data_in[78]
*248 la_data_in[79]
*249 la_data_in[7]
*250 la_data_in[80]
*251 la_data_in[81]
*252 la_data_in[82]
*253 la_data_in[83]
*254 la_data_in[84]
*255 la_data_in[85]
*256 la_data_in[86]
*257 la_data_in[87]
*258 la_data_in[88]
*259 la_data_in[89]
*260 la_data_in[8]
*261 la_data_in[90]
*262 la_data_in[91]
*263 la_data_in[92]
*264 la_data_in[93]
*265 la_data_in[94]
*266 la_data_in[95]
*267 la_data_in[96]
*268 la_data_in[97]
*269 la_data_in[98]
*270 la_data_in[99]
*271 la_data_in[9]
*272 la_data_out[0]
*273 la_data_out[100]
*274 la_data_out[101]
*275 la_data_out[102]
*276 la_data_out[103]
*277 la_data_out[104]
*278 la_data_out[105]
*279 la_data_out[106]
*280 la_data_out[107]
*281 la_data_out[108]
*282 la_data_out[109]
*283 la_data_out[10]
*284 la_data_out[110]
*285 la_data_out[111]
*286 la_data_out[112]
*287 la_data_out[113]
*288 la_data_out[114]
*289 la_data_out[115]
*290 la_data_out[116]
*291 la_data_out[117]
*292 la_data_out[118]
*293 la_data_out[119]
*294 la_data_out[11]
*295 la_data_out[120]
*296 la_data_out[121]
*297 la_data_out[122]
*298 la_data_out[123]
*299 la_data_out[124]
*300 la_data_out[125]
*301 la_data_out[126]
*302 la_data_out[127]
*303 la_data_out[12]
*304 la_data_out[13]
*305 la_data_out[14]
*306 la_data_out[15]
*307 la_data_out[16]
*308 la_data_out[17]
*309 la_data_out[18]
*310 la_data_out[19]
*311 la_data_out[1]
*312 la_data_out[20]
*313 la_data_out[21]
*314 la_data_out[22]
*315 la_data_out[23]
*316 la_data_out[24]
*317 la_data_out[25]
*318 la_data_out[26]
*319 la_data_out[27]
*320 la_data_out[28]
*321 la_data_out[29]
*322 la_data_out[2]
*323 la_data_out[30]
*324 la_data_out[31]
*325 la_data_out[32]
*326 la_data_out[33]
*327 la_data_out[34]
*328 la_data_out[35]
*329 la_data_out[36]
*330 la_data_out[37]
*331 la_data_out[38]
*332 la_data_out[39]
*333 la_data_out[3]
*334 la_data_out[40]
*335 la_data_out[41]
*336 la_data_out[42]
*337 la_data_out[43]
*338 la_data_out[44]
*339 la_data_out[45]
*340 la_data_out[46]
*341 la_data_out[47]
*342 la_data_out[48]
*343 la_data_out[49]
*344 la_data_out[4]
*345 la_data_out[50]
*346 la_data_out[51]
*347 la_data_out[52]
*348 la_data_out[53]
*349 la_data_out[54]
*350 la_data_out[55]
*351 la_data_out[56]
*352 la_data_out[57]
*353 la_data_out[58]
*354 la_data_out[59]
*355 la_data_out[5]
*356 la_data_out[60]
*357 la_data_out[61]
*358 la_data_out[62]
*359 la_data_out[63]
*360 la_data_out[64]
*361 la_data_out[65]
*362 la_data_out[66]
*363 la_data_out[67]
*364 la_data_out[68]
*365 la_data_out[69]
*366 la_data_out[6]
*367 la_data_out[70]
*368 la_data_out[71]
*369 la_data_out[72]
*370 la_data_out[73]
*371 la_data_out[74]
*372 la_data_out[75]
*373 la_data_out[76]
*374 la_data_out[77]
*375 la_data_out[78]
*376 la_data_out[79]
*377 la_data_out[7]
*378 la_data_out[80]
*379 la_data_out[81]
*380 la_data_out[82]
*381 la_data_out[83]
*382 la_data_out[84]
*383 la_data_out[85]
*384 la_data_out[86]
*385 la_data_out[87]
*386 la_data_out[88]
*387 la_data_out[89]
*388 la_data_out[8]
*389 la_data_out[90]
*390 la_data_out[91]
*391 la_data_out[92]
*392 la_data_out[93]
*393 la_data_out[94]
*394 la_data_out[95]
*395 la_data_out[96]
*396 la_data_out[97]
*397 la_data_out[98]
*398 la_data_out[99]
*399 la_data_out[9]
*400 la_oenb[0]
*401 la_oenb[100]
*402 la_oenb[101]
*403 la_oenb[102]
*404 la_oenb[103]
*405 la_oenb[104]
*406 la_oenb[105]
*407 la_oenb[106]
*408 la_oenb[107]
*409 la_oenb[108]
*410 la_oenb[109]
*411 la_oenb[10]
*412 la_oenb[110]
*413 la_oenb[111]
*414 la_oenb[112]
*415 la_oenb[113]
*416 la_oenb[114]
*417 la_oenb[115]
*418 la_oenb[116]
*419 la_oenb[117]
*420 la_oenb[118]
*421 la_oenb[119]
*422 la_oenb[11]
*423 la_oenb[120]
*424 la_oenb[121]
*425 la_oenb[122]
*426 la_oenb[123]
*427 la_oenb[124]
*428 la_oenb[125]
*429 la_oenb[126]
*430 la_oenb[127]
*431 la_oenb[12]
*432 la_oenb[13]
*433 la_oenb[14]
*434 la_oenb[15]
*435 la_oenb[16]
*436 la_oenb[17]
*437 la_oenb[18]
*438 la_oenb[19]
*439 la_oenb[1]
*440 la_oenb[20]
*441 la_oenb[21]
*442 la_oenb[22]
*443 la_oenb[23]
*444 la_oenb[24]
*445 la_oenb[25]
*446 la_oenb[26]
*447 la_oenb[27]
*448 la_oenb[28]
*449 la_oenb[29]
*450 la_oenb[2]
*451 la_oenb[30]
*452 la_oenb[31]
*453 la_oenb[32]
*454 la_oenb[33]
*455 la_oenb[34]
*456 la_oenb[35]
*457 la_oenb[36]
*458 la_oenb[37]
*459 la_oenb[38]
*460 la_oenb[39]
*461 la_oenb[3]
*462 la_oenb[40]
*463 la_oenb[41]
*464 la_oenb[42]
*465 la_oenb[43]
*466 la_oenb[44]
*467 la_oenb[45]
*468 la_oenb[46]
*469 la_oenb[47]
*470 la_oenb[48]
*471 la_oenb[49]
*472 la_oenb[4]
*473 la_oenb[50]
*474 la_oenb[51]
*475 la_oenb[52]
*476 la_oenb[53]
*477 la_oenb[54]
*478 la_oenb[55]
*479 la_oenb[56]
*480 la_oenb[57]
*481 la_oenb[58]
*482 la_oenb[59]
*483 la_oenb[5]
*484 la_oenb[60]
*485 la_oenb[61]
*486 la_oenb[62]
*487 la_oenb[63]
*488 la_oenb[64]
*489 la_oenb[65]
*490 la_oenb[66]
*491 la_oenb[67]
*492 la_oenb[68]
*493 la_oenb[69]
*494 la_oenb[6]
*495 la_oenb[70]
*496 la_oenb[71]
*497 la_oenb[72]
*498 la_oenb[73]
*499 la_oenb[74]
*500 la_oenb[75]
*501 la_oenb[76]
*502 la_oenb[77]
*503 la_oenb[78]
*504 la_oenb[79]
*505 la_oenb[7]
*506 la_oenb[80]
*507 la_oenb[81]
*508 la_oenb[82]
*509 la_oenb[83]
*510 la_oenb[84]
*511 la_oenb[85]
*512 la_oenb[86]
*513 la_oenb[87]
*514 la_oenb[88]
*515 la_oenb[89]
*516 la_oenb[8]
*517 la_oenb[90]
*518 la_oenb[91]
*519 la_oenb[92]
*520 la_oenb[93]
*521 la_oenb[94]
*522 la_oenb[95]
*523 la_oenb[96]
*524 la_oenb[97]
*525 la_oenb[98]
*526 la_oenb[99]
*527 la_oenb[9]
*528 user_clock2
*529 user_irq[0]
*530 user_irq[1]
*531 user_irq[2]
*540 wb_clk_i
*541 wb_rst_i
*542 wbs_ack_o
*543 wbs_adr_i[0]
*544 wbs_adr_i[10]
*545 wbs_adr_i[11]
*546 wbs_adr_i[12]
*547 wbs_adr_i[13]
*548 wbs_adr_i[14]
*549 wbs_adr_i[15]
*550 wbs_adr_i[16]
*551 wbs_adr_i[17]
*552 wbs_adr_i[18]
*553 wbs_adr_i[19]
*554 wbs_adr_i[1]
*555 wbs_adr_i[20]
*556 wbs_adr_i[21]
*557 wbs_adr_i[22]
*558 wbs_adr_i[23]
*559 wbs_adr_i[24]
*560 wbs_adr_i[25]
*561 wbs_adr_i[26]
*562 wbs_adr_i[27]
*563 wbs_adr_i[28]
*564 wbs_adr_i[29]
*565 wbs_adr_i[2]
*566 wbs_adr_i[30]
*567 wbs_adr_i[31]
*568 wbs_adr_i[3]
*569 wbs_adr_i[4]
*570 wbs_adr_i[5]
*571 wbs_adr_i[6]
*572 wbs_adr_i[7]
*573 wbs_adr_i[8]
*574 wbs_adr_i[9]
*575 wbs_cyc_i
*576 wbs_dat_i[0]
*577 wbs_dat_i[10]
*578 wbs_dat_i[11]
*579 wbs_dat_i[12]
*580 wbs_dat_i[13]
*581 wbs_dat_i[14]
*582 wbs_dat_i[15]
*583 wbs_dat_i[16]
*584 wbs_dat_i[17]
*585 wbs_dat_i[18]
*586 wbs_dat_i[19]
*587 wbs_dat_i[1]
*588 wbs_dat_i[20]
*589 wbs_dat_i[21]
*590 wbs_dat_i[22]
*591 wbs_dat_i[23]
*592 wbs_dat_i[24]
*593 wbs_dat_i[25]
*594 wbs_dat_i[26]
*595 wbs_dat_i[27]
*596 wbs_dat_i[28]
*597 wbs_dat_i[29]
*598 wbs_dat_i[2]
*599 wbs_dat_i[30]
*600 wbs_dat_i[31]
*601 wbs_dat_i[3]
*602 wbs_dat_i[4]
*603 wbs_dat_i[5]
*604 wbs_dat_i[6]
*605 wbs_dat_i[7]
*606 wbs_dat_i[8]
*607 wbs_dat_i[9]
*608 wbs_dat_o[0]
*609 wbs_dat_o[10]
*610 wbs_dat_o[11]
*611 wbs_dat_o[12]
*612 wbs_dat_o[13]
*613 wbs_dat_o[14]
*614 wbs_dat_o[15]
*615 wbs_dat_o[16]
*616 wbs_dat_o[17]
*617 wbs_dat_o[18]
*618 wbs_dat_o[19]
*619 wbs_dat_o[1]
*620 wbs_dat_o[20]
*621 wbs_dat_o[21]
*622 wbs_dat_o[22]
*623 wbs_dat_o[23]
*624 wbs_dat_o[24]
*625 wbs_dat_o[25]
*626 wbs_dat_o[26]
*627 wbs_dat_o[27]
*628 wbs_dat_o[28]
*629 wbs_dat_o[29]
*630 wbs_dat_o[2]
*631 wbs_dat_o[30]
*632 wbs_dat_o[31]
*633 wbs_dat_o[3]
*634 wbs_dat_o[4]
*635 wbs_dat_o[5]
*636 wbs_dat_o[6]
*637 wbs_dat_o[7]
*638 wbs_dat_o[8]
*639 wbs_dat_o[9]
*640 wbs_sel_i[0]
*641 wbs_sel_i[1]
*642 wbs_sel_i[2]
*643 wbs_sel_i[3]
*644 wbs_stb_i
*645 wbs_we_i
*646 addr0_mem0\[0\]
*647 addr0_mem0\[1\]
*648 addr0_mem0\[2\]
*649 addr0_mem0\[3\]
*650 addr0_mem0\[4\]
*651 addr0_mem0\[5\]
*652 addr0_mem0\[6\]
*653 addr0_mem0\[7\]
*654 addr0_mem0\[8\]
*655 addr0_mem1\[0\]
*656 addr0_mem1\[1\]
*657 addr0_mem1\[2\]
*658 addr0_mem1\[3\]
*659 addr0_mem1\[4\]
*660 addr0_mem1\[5\]
*661 addr0_mem1\[6\]
*662 addr0_mem1\[7\]
*663 addr0_mem1\[8\]
*664 addr1\[0\]
*665 addr1\[1\]
*666 addr1\[2\]
*667 addr1\[3\]
*668 addr1\[4\]
*669 addr1\[5\]
*670 addr1\[6\]
*671 addr1\[7\]
*672 addr1\[8\]
*673 addr1\[9\]
*674 addr1_mem0\[0\]
*675 addr1_mem0\[1\]
*676 addr1_mem0\[2\]
*677 addr1_mem0\[3\]
*678 addr1_mem0\[4\]
*679 addr1_mem0\[5\]
*680 addr1_mem0\[6\]
*681 addr1_mem0\[7\]
*682 addr1_mem0\[8\]
*683 addr1_mem1\[0\]
*684 addr1_mem1\[1\]
*685 addr1_mem1\[2\]
*686 addr1_mem1\[3\]
*687 addr1_mem1\[4\]
*688 addr1_mem1\[5\]
*689 addr1_mem1\[6\]
*690 addr1_mem1\[7\]
*691 addr1_mem1\[8\]
*692 csb0_mem0
*693 csb0_mem1
*694 csb1
*695 csb1_mem0
*696 csb1_mem1
*697 din0_mem0\[0\]
*698 din0_mem0\[10\]
*699 din0_mem0\[11\]
*700 din0_mem0\[12\]
*701 din0_mem0\[13\]
*702 din0_mem0\[14\]
*703 din0_mem0\[15\]
*704 din0_mem0\[16\]
*705 din0_mem0\[17\]
*706 din0_mem0\[18\]
*707 din0_mem0\[19\]
*708 din0_mem0\[1\]
*709 din0_mem0\[20\]
*710 din0_mem0\[21\]
*711 din0_mem0\[22\]
*712 din0_mem0\[23\]
*713 din0_mem0\[24\]
*714 din0_mem0\[25\]
*715 din0_mem0\[26\]
*716 din0_mem0\[27\]
*717 din0_mem0\[28\]
*718 din0_mem0\[29\]
*719 din0_mem0\[2\]
*720 din0_mem0\[30\]
*721 din0_mem0\[31\]
*722 din0_mem0\[3\]
*723 din0_mem0\[4\]
*724 din0_mem0\[5\]
*725 din0_mem0\[6\]
*726 din0_mem0\[7\]
*727 din0_mem0\[8\]
*728 din0_mem0\[9\]
*729 din0_mem1\[0\]
*730 din0_mem1\[10\]
*731 din0_mem1\[11\]
*732 din0_mem1\[12\]
*733 din0_mem1\[13\]
*734 din0_mem1\[14\]
*735 din0_mem1\[15\]
*736 din0_mem1\[16\]
*737 din0_mem1\[17\]
*738 din0_mem1\[18\]
*739 din0_mem1\[19\]
*740 din0_mem1\[1\]
*741 din0_mem1\[20\]
*742 din0_mem1\[21\]
*743 din0_mem1\[22\]
*744 din0_mem1\[23\]
*745 din0_mem1\[24\]
*746 din0_mem1\[25\]
*747 din0_mem1\[26\]
*748 din0_mem1\[27\]
*749 din0_mem1\[28\]
*750 din0_mem1\[29\]
*751 din0_mem1\[2\]
*752 din0_mem1\[30\]
*753 din0_mem1\[31\]
*754 din0_mem1\[3\]
*755 din0_mem1\[4\]
*756 din0_mem1\[5\]
*757 din0_mem1\[6\]
*758 din0_mem1\[7\]
*759 din0_mem1\[8\]
*760 din0_mem1\[9\]
*761 dout0_mem0\[0\]
*762 dout0_mem0\[10\]
*763 dout0_mem0\[11\]
*764 dout0_mem0\[12\]
*765 dout0_mem0\[13\]
*766 dout0_mem0\[14\]
*767 dout0_mem0\[15\]
*768 dout0_mem0\[16\]
*769 dout0_mem0\[17\]
*770 dout0_mem0\[18\]
*771 dout0_mem0\[19\]
*772 dout0_mem0\[1\]
*773 dout0_mem0\[20\]
*774 dout0_mem0\[21\]
*775 dout0_mem0\[22\]
*776 dout0_mem0\[23\]
*777 dout0_mem0\[24\]
*778 dout0_mem0\[25\]
*779 dout0_mem0\[26\]
*780 dout0_mem0\[27\]
*781 dout0_mem0\[28\]
*782 dout0_mem0\[29\]
*783 dout0_mem0\[2\]
*784 dout0_mem0\[30\]
*785 dout0_mem0\[31\]
*786 dout0_mem0\[3\]
*787 dout0_mem0\[4\]
*788 dout0_mem0\[5\]
*789 dout0_mem0\[6\]
*790 dout0_mem0\[7\]
*791 dout0_mem0\[8\]
*792 dout0_mem0\[9\]
*793 dout0_mem1\[0\]
*794 dout0_mem1\[10\]
*795 dout0_mem1\[11\]
*796 dout0_mem1\[12\]
*797 dout0_mem1\[13\]
*798 dout0_mem1\[14\]
*799 dout0_mem1\[15\]
*800 dout0_mem1\[16\]
*801 dout0_mem1\[17\]
*802 dout0_mem1\[18\]
*803 dout0_mem1\[19\]
*804 dout0_mem1\[1\]
*805 dout0_mem1\[20\]
*806 dout0_mem1\[21\]
*807 dout0_mem1\[22\]
*808 dout0_mem1\[23\]
*809 dout0_mem1\[24\]
*810 dout0_mem1\[25\]
*811 dout0_mem1\[26\]
*812 dout0_mem1\[27\]
*813 dout0_mem1\[28\]
*814 dout0_mem1\[29\]
*815 dout0_mem1\[2\]
*816 dout0_mem1\[30\]
*817 dout0_mem1\[31\]
*818 dout0_mem1\[3\]
*819 dout0_mem1\[4\]
*820 dout0_mem1\[5\]
*821 dout0_mem1\[6\]
*822 dout0_mem1\[7\]
*823 dout0_mem1\[8\]
*824 dout0_mem1\[9\]
*825 dout1\[0\]
*826 dout1\[10\]
*827 dout1\[11\]
*828 dout1\[12\]
*829 dout1\[13\]
*830 dout1\[14\]
*831 dout1\[15\]
*832 dout1\[16\]
*833 dout1\[17\]
*834 dout1\[18\]
*835 dout1\[19\]
*836 dout1\[1\]
*837 dout1\[20\]
*838 dout1\[21\]
*839 dout1\[22\]
*840 dout1\[23\]
*841 dout1\[24\]
*842 dout1\[25\]
*843 dout1\[26\]
*844 dout1\[27\]
*845 dout1\[28\]
*846 dout1\[29\]
*847 dout1\[2\]
*848 dout1\[30\]
*849 dout1\[31\]
*850 dout1\[3\]
*851 dout1\[4\]
*852 dout1\[5\]
*853 dout1\[6\]
*854 dout1\[7\]
*855 dout1\[8\]
*856 dout1\[9\]
*857 dout1_mem0\[0\]
*858 dout1_mem0\[10\]
*859 dout1_mem0\[11\]
*860 dout1_mem0\[12\]
*861 dout1_mem0\[13\]
*862 dout1_mem0\[14\]
*863 dout1_mem0\[15\]
*864 dout1_mem0\[16\]
*865 dout1_mem0\[17\]
*866 dout1_mem0\[18\]
*867 dout1_mem0\[19\]
*868 dout1_mem0\[1\]
*869 dout1_mem0\[20\]
*870 dout1_mem0\[21\]
*871 dout1_mem0\[22\]
*872 dout1_mem0\[23\]
*873 dout1_mem0\[24\]
*874 dout1_mem0\[25\]
*875 dout1_mem0\[26\]
*876 dout1_mem0\[27\]
*877 dout1_mem0\[28\]
*878 dout1_mem0\[29\]
*879 dout1_mem0\[2\]
*880 dout1_mem0\[30\]
*881 dout1_mem0\[31\]
*882 dout1_mem0\[3\]
*883 dout1_mem0\[4\]
*884 dout1_mem0\[5\]
*885 dout1_mem0\[6\]
*886 dout1_mem0\[7\]
*887 dout1_mem0\[8\]
*888 dout1_mem0\[9\]
*889 dout1_mem1\[0\]
*890 dout1_mem1\[10\]
*891 dout1_mem1\[11\]
*892 dout1_mem1\[12\]
*893 dout1_mem1\[13\]
*894 dout1_mem1\[14\]
*895 dout1_mem1\[15\]
*896 dout1_mem1\[16\]
*897 dout1_mem1\[17\]
*898 dout1_mem1\[18\]
*899 dout1_mem1\[19\]
*900 dout1_mem1\[1\]
*901 dout1_mem1\[20\]
*902 dout1_mem1\[21\]
*903 dout1_mem1\[22\]
*904 dout1_mem1\[23\]
*905 dout1_mem1\[24\]
*906 dout1_mem1\[25\]
*907 dout1_mem1\[26\]
*908 dout1_mem1\[27\]
*909 dout1_mem1\[28\]
*910 dout1_mem1\[29\]
*911 dout1_mem1\[2\]
*912 dout1_mem1\[30\]
*913 dout1_mem1\[31\]
*914 dout1_mem1\[3\]
*915 dout1_mem1\[4\]
*916 dout1_mem1\[5\]
*917 dout1_mem1\[6\]
*918 dout1_mem1\[7\]
*919 dout1_mem1\[8\]
*920 dout1_mem1\[9\]
*921 io_wbs_ack_0
*922 io_wbs_ack_1
*923 io_wbs_adr_0\[0\]
*924 io_wbs_adr_0\[10\]
*925 io_wbs_adr_0\[11\]
*926 io_wbs_adr_0\[12\]
*927 io_wbs_adr_0\[13\]
*928 io_wbs_adr_0\[14\]
*929 io_wbs_adr_0\[15\]
*930 io_wbs_adr_0\[16\]
*931 io_wbs_adr_0\[17\]
*932 io_wbs_adr_0\[18\]
*933 io_wbs_adr_0\[19\]
*934 io_wbs_adr_0\[1\]
*935 io_wbs_adr_0\[20\]
*936 io_wbs_adr_0\[21\]
*937 io_wbs_adr_0\[22\]
*938 io_wbs_adr_0\[23\]
*939 io_wbs_adr_0\[24\]
*940 io_wbs_adr_0\[25\]
*941 io_wbs_adr_0\[26\]
*942 io_wbs_adr_0\[27\]
*943 io_wbs_adr_0\[28\]
*944 io_wbs_adr_0\[29\]
*945 io_wbs_adr_0\[2\]
*946 io_wbs_adr_0\[30\]
*947 io_wbs_adr_0\[31\]
*948 io_wbs_adr_0\[3\]
*949 io_wbs_adr_0\[4\]
*950 io_wbs_adr_0\[5\]
*951 io_wbs_adr_0\[6\]
*952 io_wbs_adr_0\[7\]
*953 io_wbs_adr_0\[8\]
*954 io_wbs_adr_0\[9\]
*955 io_wbs_adr_1\[0\]
*956 io_wbs_adr_1\[10\]
*957 io_wbs_adr_1\[11\]
*958 io_wbs_adr_1\[12\]
*959 io_wbs_adr_1\[13\]
*960 io_wbs_adr_1\[14\]
*961 io_wbs_adr_1\[15\]
*962 io_wbs_adr_1\[16\]
*963 io_wbs_adr_1\[17\]
*964 io_wbs_adr_1\[18\]
*965 io_wbs_adr_1\[19\]
*966 io_wbs_adr_1\[1\]
*967 io_wbs_adr_1\[20\]
*968 io_wbs_adr_1\[21\]
*969 io_wbs_adr_1\[22\]
*970 io_wbs_adr_1\[23\]
*971 io_wbs_adr_1\[24\]
*972 io_wbs_adr_1\[25\]
*973 io_wbs_adr_1\[26\]
*974 io_wbs_adr_1\[27\]
*975 io_wbs_adr_1\[28\]
*976 io_wbs_adr_1\[29\]
*977 io_wbs_adr_1\[2\]
*978 io_wbs_adr_1\[30\]
*979 io_wbs_adr_1\[31\]
*980 io_wbs_adr_1\[3\]
*981 io_wbs_adr_1\[4\]
*982 io_wbs_adr_1\[5\]
*983 io_wbs_adr_1\[6\]
*984 io_wbs_adr_1\[7\]
*985 io_wbs_adr_1\[8\]
*986 io_wbs_adr_1\[9\]
*987 io_wbs_cyc_0
*988 io_wbs_cyc_1
*989 io_wbs_datrd_0\[0\]
*990 io_wbs_datrd_0\[10\]
*991 io_wbs_datrd_0\[11\]
*992 io_wbs_datrd_0\[12\]
*993 io_wbs_datrd_0\[13\]
*994 io_wbs_datrd_0\[14\]
*995 io_wbs_datrd_0\[15\]
*996 io_wbs_datrd_0\[16\]
*997 io_wbs_datrd_0\[17\]
*998 io_wbs_datrd_0\[18\]
*999 io_wbs_datrd_0\[19\]
*1000 io_wbs_datrd_0\[1\]
*1001 io_wbs_datrd_0\[20\]
*1002 io_wbs_datrd_0\[21\]
*1003 io_wbs_datrd_0\[22\]
*1004 io_wbs_datrd_0\[23\]
*1005 io_wbs_datrd_0\[24\]
*1006 io_wbs_datrd_0\[25\]
*1007 io_wbs_datrd_0\[26\]
*1008 io_wbs_datrd_0\[27\]
*1009 io_wbs_datrd_0\[28\]
*1010 io_wbs_datrd_0\[29\]
*1011 io_wbs_datrd_0\[2\]
*1012 io_wbs_datrd_0\[30\]
*1013 io_wbs_datrd_0\[31\]
*1014 io_wbs_datrd_0\[3\]
*1015 io_wbs_datrd_0\[4\]
*1016 io_wbs_datrd_0\[5\]
*1017 io_wbs_datrd_0\[6\]
*1018 io_wbs_datrd_0\[7\]
*1019 io_wbs_datrd_0\[8\]
*1020 io_wbs_datrd_0\[9\]
*1021 io_wbs_datrd_1\[0\]
*1022 io_wbs_datrd_1\[10\]
*1023 io_wbs_datrd_1\[11\]
*1024 io_wbs_datrd_1\[12\]
*1025 io_wbs_datrd_1\[13\]
*1026 io_wbs_datrd_1\[14\]
*1027 io_wbs_datrd_1\[15\]
*1028 io_wbs_datrd_1\[16\]
*1029 io_wbs_datrd_1\[17\]
*1030 io_wbs_datrd_1\[18\]
*1031 io_wbs_datrd_1\[19\]
*1032 io_wbs_datrd_1\[1\]
*1033 io_wbs_datrd_1\[20\]
*1034 io_wbs_datrd_1\[21\]
*1035 io_wbs_datrd_1\[22\]
*1036 io_wbs_datrd_1\[23\]
*1037 io_wbs_datrd_1\[24\]
*1038 io_wbs_datrd_1\[25\]
*1039 io_wbs_datrd_1\[26\]
*1040 io_wbs_datrd_1\[27\]
*1041 io_wbs_datrd_1\[28\]
*1042 io_wbs_datrd_1\[29\]
*1043 io_wbs_datrd_1\[2\]
*1044 io_wbs_datrd_1\[30\]
*1045 io_wbs_datrd_1\[31\]
*1046 io_wbs_datrd_1\[3\]
*1047 io_wbs_datrd_1\[4\]
*1048 io_wbs_datrd_1\[5\]
*1049 io_wbs_datrd_1\[6\]
*1050 io_wbs_datrd_1\[7\]
*1051 io_wbs_datrd_1\[8\]
*1052 io_wbs_datrd_1\[9\]
*1053 io_wbs_datwr_0\[0\]
*1054 io_wbs_datwr_0\[10\]
*1055 io_wbs_datwr_0\[11\]
*1056 io_wbs_datwr_0\[12\]
*1057 io_wbs_datwr_0\[13\]
*1058 io_wbs_datwr_0\[14\]
*1059 io_wbs_datwr_0\[15\]
*1060 io_wbs_datwr_0\[16\]
*1061 io_wbs_datwr_0\[17\]
*1062 io_wbs_datwr_0\[18\]
*1063 io_wbs_datwr_0\[19\]
*1064 io_wbs_datwr_0\[1\]
*1065 io_wbs_datwr_0\[20\]
*1066 io_wbs_datwr_0\[21\]
*1067 io_wbs_datwr_0\[22\]
*1068 io_wbs_datwr_0\[23\]
*1069 io_wbs_datwr_0\[24\]
*1070 io_wbs_datwr_0\[25\]
*1071 io_wbs_datwr_0\[26\]
*1072 io_wbs_datwr_0\[27\]
*1073 io_wbs_datwr_0\[28\]
*1074 io_wbs_datwr_0\[29\]
*1075 io_wbs_datwr_0\[2\]
*1076 io_wbs_datwr_0\[30\]
*1077 io_wbs_datwr_0\[31\]
*1078 io_wbs_datwr_0\[3\]
*1079 io_wbs_datwr_0\[4\]
*1080 io_wbs_datwr_0\[5\]
*1081 io_wbs_datwr_0\[6\]
*1082 io_wbs_datwr_0\[7\]
*1083 io_wbs_datwr_0\[8\]
*1084 io_wbs_datwr_0\[9\]
*1085 io_wbs_datwr_1\[0\]
*1086 io_wbs_datwr_1\[10\]
*1087 io_wbs_datwr_1\[11\]
*1088 io_wbs_datwr_1\[12\]
*1089 io_wbs_datwr_1\[13\]
*1090 io_wbs_datwr_1\[14\]
*1091 io_wbs_datwr_1\[15\]
*1092 io_wbs_datwr_1\[16\]
*1093 io_wbs_datwr_1\[17\]
*1094 io_wbs_datwr_1\[18\]
*1095 io_wbs_datwr_1\[19\]
*1096 io_wbs_datwr_1\[1\]
*1097 io_wbs_datwr_1\[20\]
*1098 io_wbs_datwr_1\[21\]
*1099 io_wbs_datwr_1\[22\]
*1100 io_wbs_datwr_1\[23\]
*1101 io_wbs_datwr_1\[24\]
*1102 io_wbs_datwr_1\[25\]
*1103 io_wbs_datwr_1\[26\]
*1104 io_wbs_datwr_1\[27\]
*1105 io_wbs_datwr_1\[28\]
*1106 io_wbs_datwr_1\[29\]
*1107 io_wbs_datwr_1\[2\]
*1108 io_wbs_datwr_1\[30\]
*1109 io_wbs_datwr_1\[31\]
*1110 io_wbs_datwr_1\[3\]
*1111 io_wbs_datwr_1\[4\]
*1112 io_wbs_datwr_1\[5\]
*1113 io_wbs_datwr_1\[6\]
*1114 io_wbs_datwr_1\[7\]
*1115 io_wbs_datwr_1\[8\]
*1116 io_wbs_datwr_1\[9\]
*1117 io_wbs_stb_0
*1118 io_wbs_stb_1
*1119 io_wbs_we_0
*1120 io_wbs_we_1
*1121 unused\[0\]
*1122 unused\[10\]
*1123 unused\[11\]
*1124 unused\[12\]
*1125 unused\[13\]
*1126 unused\[14\]
*1127 unused\[15\]
*1128 unused\[16\]
*1129 unused\[17\]
*1130 unused\[18\]
*1131 unused\[19\]
*1132 unused\[1\]
*1133 unused\[20\]
*1134 unused\[21\]
*1135 unused\[22\]
*1136 unused\[23\]
*1137 unused\[2\]
*1138 unused\[3\]
*1139 unused\[4\]
*1140 unused\[5\]
*1141 unused\[6\]
*1142 unused\[7\]
*1143 unused\[8\]
*1144 unused\[9\]
*1145 web0_mem0
*1146 web0_mem1
*1147 wmask0_mem0\[0\]
*1148 wmask0_mem0\[1\]
*1149 wmask0_mem0\[2\]
*1150 wmask0_mem0\[3\]
*1151 wmask0_mem1\[0\]
*1152 wmask0_mem1\[1\]
*1153 wmask0_mem1\[2\]
*1154 wmask0_mem1\[3\]
*1155 merge_memory_inst
*1156 sky130_sram_2kbyte_1rw1r_32x512_8_inst0
*1157 sky130_sram_2kbyte_1rw1r_32x512_8_inst1
*1158 wb_memory_inst
*1159 wb_mux_inst
*1160 wfg_top_inst

*PORTS
analog_io[0] I
analog_io[10] I
analog_io[11] I
analog_io[12] I
analog_io[13] I
analog_io[14] I
analog_io[15] I
analog_io[16] I
analog_io[17] I
analog_io[18] I
analog_io[19] I
analog_io[1] I
analog_io[20] I
analog_io[21] I
analog_io[22] I
analog_io[23] I
analog_io[24] I
analog_io[25] I
analog_io[26] I
analog_io[27] I
analog_io[28] I
analog_io[2] I
analog_io[3] I
analog_io[4] I
analog_io[5] I
analog_io[6] I
analog_io[7] I
analog_io[8] I
analog_io[9] I
io_in[0] I
io_in[10] I
io_in[11] I
io_in[12] I
io_in[13] I
io_in[14] I
io_in[15] I
io_in[16] I
io_in[17] I
io_in[18] I
io_in[19] I
io_in[1] I
io_in[20] I
io_in[21] I
io_in[22] I
io_in[23] I
io_in[24] I
io_in[25] I
io_in[26] I
io_in[27] I
io_in[28] I
io_in[29] I
io_in[2] I
io_in[30] I
io_in[31] I
io_in[32] I
io_in[33] I
io_in[34] I
io_in[35] I
io_in[36] I
io_in[37] I
io_in[3] I
io_in[4] I
io_in[5] I
io_in[6] I
io_in[7] I
io_in[8] I
io_in[9] I
io_oeb[0] O
io_oeb[10] O
io_oeb[11] O
io_oeb[12] O
io_oeb[13] O
io_oeb[14] O
io_oeb[15] O
io_oeb[16] O
io_oeb[17] O
io_oeb[18] O
io_oeb[19] O
io_oeb[1] O
io_oeb[20] O
io_oeb[21] O
io_oeb[22] O
io_oeb[23] O
io_oeb[24] O
io_oeb[25] O
io_oeb[26] O
io_oeb[27] O
io_oeb[28] O
io_oeb[29] O
io_oeb[2] O
io_oeb[30] O
io_oeb[31] O
io_oeb[32] O
io_oeb[33] O
io_oeb[34] O
io_oeb[35] O
io_oeb[36] O
io_oeb[37] O
io_oeb[3] O
io_oeb[4] O
io_oeb[5] O
io_oeb[6] O
io_oeb[7] O
io_oeb[8] O
io_oeb[9] O
io_out[0] O
io_out[10] O
io_out[11] O
io_out[12] O
io_out[13] O
io_out[14] O
io_out[15] O
io_out[16] O
io_out[17] O
io_out[18] O
io_out[19] O
io_out[1] O
io_out[20] O
io_out[21] O
io_out[22] O
io_out[23] O
io_out[24] O
io_out[25] O
io_out[26] O
io_out[27] O
io_out[28] O
io_out[29] O
io_out[2] O
io_out[30] O
io_out[31] O
io_out[32] O
io_out[33] O
io_out[34] O
io_out[35] O
io_out[36] O
io_out[37] O
io_out[3] O
io_out[4] O
io_out[5] O
io_out[6] O
io_out[7] O
io_out[8] O
io_out[9] O
la_data_in[0] I
la_data_in[100] I
la_data_in[101] I
la_data_in[102] I
la_data_in[103] I
la_data_in[104] I
la_data_in[105] I
la_data_in[106] I
la_data_in[107] I
la_data_in[108] I
la_data_in[109] I
la_data_in[10] I
la_data_in[110] I
la_data_in[111] I
la_data_in[112] I
la_data_in[113] I
la_data_in[114] I
la_data_in[115] I
la_data_in[116] I
la_data_in[117] I
la_data_in[118] I
la_data_in[119] I
la_data_in[11] I
la_data_in[120] I
la_data_in[121] I
la_data_in[122] I
la_data_in[123] I
la_data_in[124] I
la_data_in[125] I
la_data_in[126] I
la_data_in[127] I
la_data_in[12] I
la_data_in[13] I
la_data_in[14] I
la_data_in[15] I
la_data_in[16] I
la_data_in[17] I
la_data_in[18] I
la_data_in[19] I
la_data_in[1] I
la_data_in[20] I
la_data_in[21] I
la_data_in[22] I
la_data_in[23] I
la_data_in[24] I
la_data_in[25] I
la_data_in[26] I
la_data_in[27] I
la_data_in[28] I
la_data_in[29] I
la_data_in[2] I
la_data_in[30] I
la_data_in[31] I
la_data_in[32] I
la_data_in[33] I
la_data_in[34] I
la_data_in[35] I
la_data_in[36] I
la_data_in[37] I
la_data_in[38] I
la_data_in[39] I
la_data_in[3] I
la_data_in[40] I
la_data_in[41] I
la_data_in[42] I
la_data_in[43] I
la_data_in[44] I
la_data_in[45] I
la_data_in[46] I
la_data_in[47] I
la_data_in[48] I
la_data_in[49] I
la_data_in[4] I
la_data_in[50] I
la_data_in[51] I
la_data_in[52] I
la_data_in[53] I
la_data_in[54] I
la_data_in[55] I
la_data_in[56] I
la_data_in[57] I
la_data_in[58] I
la_data_in[59] I
la_data_in[5] I
la_data_in[60] I
la_data_in[61] I
la_data_in[62] I
la_data_in[63] I
la_data_in[64] I
la_data_in[65] I
la_data_in[66] I
la_data_in[67] I
la_data_in[68] I
la_data_in[69] I
la_data_in[6] I
la_data_in[70] I
la_data_in[71] I
la_data_in[72] I
la_data_in[73] I
la_data_in[74] I
la_data_in[75] I
la_data_in[76] I
la_data_in[77] I
la_data_in[78] I
la_data_in[79] I
la_data_in[7] I
la_data_in[80] I
la_data_in[81] I
la_data_in[82] I
la_data_in[83] I
la_data_in[84] I
la_data_in[85] I
la_data_in[86] I
la_data_in[87] I
la_data_in[88] I
la_data_in[89] I
la_data_in[8] I
la_data_in[90] I
la_data_in[91] I
la_data_in[92] I
la_data_in[93] I
la_data_in[94] I
la_data_in[95] I
la_data_in[96] I
la_data_in[97] I
la_data_in[98] I
la_data_in[99] I
la_data_in[9] I
la_data_out[0] O
la_data_out[100] O
la_data_out[101] O
la_data_out[102] O
la_data_out[103] O
la_data_out[104] O
la_data_out[105] O
la_data_out[106] O
la_data_out[107] O
la_data_out[108] O
la_data_out[109] O
la_data_out[10] O
la_data_out[110] O
la_data_out[111] O
la_data_out[112] O
la_data_out[113] O
la_data_out[114] O
la_data_out[115] O
la_data_out[116] O
la_data_out[117] O
la_data_out[118] O
la_data_out[119] O
la_data_out[11] O
la_data_out[120] O
la_data_out[121] O
la_data_out[122] O
la_data_out[123] O
la_data_out[124] O
la_data_out[125] O
la_data_out[126] O
la_data_out[127] O
la_data_out[12] O
la_data_out[13] O
la_data_out[14] O
la_data_out[15] O
la_data_out[16] O
la_data_out[17] O
la_data_out[18] O
la_data_out[19] O
la_data_out[1] O
la_data_out[20] O
la_data_out[21] O
la_data_out[22] O
la_data_out[23] O
la_data_out[24] O
la_data_out[25] O
la_data_out[26] O
la_data_out[27] O
la_data_out[28] O
la_data_out[29] O
la_data_out[2] O
la_data_out[30] O
la_data_out[31] O
la_data_out[32] O
la_data_out[33] O
la_data_out[34] O
la_data_out[35] O
la_data_out[36] O
la_data_out[37] O
la_data_out[38] O
la_data_out[39] O
la_data_out[3] O
la_data_out[40] O
la_data_out[41] O
la_data_out[42] O
la_data_out[43] O
la_data_out[44] O
la_data_out[45] O
la_data_out[46] O
la_data_out[47] O
la_data_out[48] O
la_data_out[49] O
la_data_out[4] O
la_data_out[50] O
la_data_out[51] O
la_data_out[52] O
la_data_out[53] O
la_data_out[54] O
la_data_out[55] O
la_data_out[56] O
la_data_out[57] O
la_data_out[58] O
la_data_out[59] O
la_data_out[5] O
la_data_out[60] O
la_data_out[61] O
la_data_out[62] O
la_data_out[63] O
la_data_out[64] O
la_data_out[65] O
la_data_out[66] O
la_data_out[67] O
la_data_out[68] O
la_data_out[69] O
la_data_out[6] O
la_data_out[70] O
la_data_out[71] O
la_data_out[72] O
la_data_out[73] O
la_data_out[74] O
la_data_out[75] O
la_data_out[76] O
la_data_out[77] O
la_data_out[78] O
la_data_out[79] O
la_data_out[7] O
la_data_out[80] O
la_data_out[81] O
la_data_out[82] O
la_data_out[83] O
la_data_out[84] O
la_data_out[85] O
la_data_out[86] O
la_data_out[87] O
la_data_out[88] O
la_data_out[89] O
la_data_out[8] O
la_data_out[90] O
la_data_out[91] O
la_data_out[92] O
la_data_out[93] O
la_data_out[94] O
la_data_out[95] O
la_data_out[96] O
la_data_out[97] O
la_data_out[98] O
la_data_out[99] O
la_data_out[9] O
la_oenb[0] I
la_oenb[100] I
la_oenb[101] I
la_oenb[102] I
la_oenb[103] I
la_oenb[104] I