*SPEF "ieee 1481-1999"
*DESIGN "wb_memory"
*DATE "11:11:11 Fri 11 11, 1111"
*VENDOR "OpenRCX"
*PROGRAM "Parallel Extraction"
*VERSION "1.0"
*DESIGN_FLOW "NAME_SCOPE LOCAL" "PIN_CAP NONE"
*DIVIDER /
*DELIMITER :
*BUS_DELIMITER []
*T_UNIT 1 NS
*C_UNIT 1 PF
*R_UNIT 1 OHM
*L_UNIT 1 HENRY

*NAME_MAP
*1 addr_mem0[0]
*2 addr_mem0[1]
*3 addr_mem0[2]
*4 addr_mem0[3]
*5 addr_mem0[4]
*6 addr_mem0[5]
*7 addr_mem0[6]
*8 addr_mem0[7]
*9 addr_mem0[8]
*10 addr_mem1[0]
*11 addr_mem1[1]
*12 addr_mem1[2]
*13 addr_mem1[3]
*14 addr_mem1[4]
*15 addr_mem1[5]
*16 addr_mem1[6]
*17 addr_mem1[7]
*18 addr_mem1[8]
*19 net228
*20 net229
*21 din_mem0[0]
*22 din_mem0[10]
*23 din_mem0[11]
*24 din_mem0[12]
*25 din_mem0[13]
*26 din_mem0[14]
*27 din_mem0[15]
*28 din_mem0[16]
*29 din_mem0[17]
*30 din_mem0[18]
*31 din_mem0[19]
*32 din_mem0[1]
*33 din_mem0[20]
*34 din_mem0[21]
*35 din_mem0[22]
*36 din_mem0[23]
*37 din_mem0[24]
*38 din_mem0[25]
*39 din_mem0[26]
*40 din_mem0[27]
*41 din_mem0[28]
*42 din_mem0[29]
*43 din_mem0[2]
*44 din_mem0[30]
*45 din_mem0[31]
*46 din_mem0[3]
*47 din_mem0[4]
*48 din_mem0[5]
*49 din_mem0[6]
*50 din_mem0[7]
*51 din_mem0[8]
*52 din_mem0[9]
*53 din_mem1[0]
*54 din_mem1[10]
*55 din_mem1[11]
*56 din_mem1[12]
*57 din_mem1[13]
*58 din_mem1[14]
*59 din_mem1[15]
*60 din_mem1[16]
*61 din_mem1[17]
*62 din_mem1[18]
*63 din_mem1[19]
*64 din_mem1[1]
*65 din_mem1[20]
*66 din_mem1[21]
*67 din_mem1[22]
*68 din_mem1[23]
*69 din_mem1[24]
*70 din_mem1[25]
*71 din_mem1[26]
*72 din_mem1[27]
*73 din_mem1[28]
*74 din_mem1[29]
*75 din_mem1[2]
*76 din_mem1[30]
*77 din_mem1[31]
*78 din_mem1[3]
*79 din_mem1[4]
*80 din_mem1[5]
*81 din_mem1[6]
*82 din_mem1[7]
*83 din_mem1[8]
*84 din_mem1[9]
*85 dout_mem0[0]
*86 dout_mem0[10]
*87 dout_mem0[11]
*88 dout_mem0[12]
*89 dout_mem0[13]
*90 dout_mem0[14]
*91 dout_mem0[15]
*92 dout_mem0[16]
*93 dout_mem0[17]
*94 dout_mem0[18]
*95 dout_mem0[19]
*96 dout_mem0[1]
*97 dout_mem0[20]
*98 dout_mem0[21]
*99 dout_mem0[22]
*100 dout_mem0[23]
*101 dout_mem0[24]
*102 dout_mem0[25]
*103 dout_mem0[26]
*104 dout_mem0[27]
*105 dout_mem0[28]
*106 dout_mem0[29]
*107 dout_mem0[2]
*108 dout_mem0[30]
*109 dout_mem0[31]
*110 dout_mem0[3]
*111 dout_mem0[4]
*112 dout_mem0[5]
*113 dout_mem0[6]
*114 dout_mem0[7]
*115 dout_mem0[8]
*116 dout_mem0[9]
*117 dout_mem1[0]
*118 dout_mem1[10]
*119 dout_mem1[11]
*120 dout_mem1[12]
*121 dout_mem1[13]
*122 dout_mem1[14]
*123 dout_mem1[15]
*124 dout_mem1[16]
*125 dout_mem1[17]
*126 dout_mem1[18]
*127 dout_mem1[19]
*128 dout_mem1[1]
*129 dout_mem1[20]
*130 dout_mem1[21]
*131 dout_mem1[22]
*132 dout_mem1[23]
*133 dout_mem1[24]
*134 dout_mem1[25]
*135 dout_mem1[26]
*136 dout_mem1[27]
*137 dout_mem1[28]
*138 dout_mem1[29]
*139 dout_mem1[2]
*140 dout_mem1[30]
*141 dout_mem1[31]
*142 dout_mem1[3]
*143 dout_mem1[4]
*144 dout_mem1[5]
*145 dout_mem1[6]
*146 dout_mem1[7]
*147 dout_mem1[8]
*148 dout_mem1[9]
*149 io_wbs_ack
*150 io_wbs_adr[0]
*151 io_wbs_adr[10]
*152 io_wbs_adr[11]
*153 io_wbs_adr[12]
*154 io_wbs_adr[13]
*155 io_wbs_adr[14]
*156 io_wbs_adr[15]
*157 io_wbs_adr[16]
*158 io_wbs_adr[17]
*159 io_wbs_adr[18]
*160 io_wbs_adr[19]
*161 io_wbs_adr[1]
*162 io_wbs_adr[20]
*163 io_wbs_adr[21]
*164 io_wbs_adr[22]
*165 io_wbs_adr[23]
*166 io_wbs_adr[24]
*167 io_wbs_adr[25]
*168 io_wbs_adr[26]
*169 io_wbs_adr[27]
*170 io_wbs_adr[28]
*171 io_wbs_adr[29]
*172 io_wbs_adr[2]
*173 io_wbs_adr[30]
*174 io_wbs_adr[31]
*175 io_wbs_adr[3]
*176 io_wbs_adr[4]
*177 io_wbs_adr[5]
*178 io_wbs_adr[6]
*179 io_wbs_adr[7]
*180 io_wbs_adr[8]
*181 io_wbs_adr[9]
*182 io_wbs_clk
*183 io_wbs_cyc
*184 io_wbs_datrd[0]
*185 io_wbs_datrd[10]
*186 io_wbs_datrd[11]
*187 io_wbs_datrd[12]
*188 io_wbs_datrd[13]
*189 io_wbs_datrd[14]
*190 io_wbs_datrd[15]
*191 io_wbs_datrd[16]
*192 io_wbs_datrd[17]
*193 io_wbs_datrd[18]
*194 io_wbs_datrd[19]
*195 io_wbs_datrd[1]
*196 io_wbs_datrd[20]
*197 io_wbs_datrd[21]
*198 io_wbs_datrd[22]
*199 io_wbs_datrd[23]
*200 io_wbs_datrd[24]
*201 io_wbs_datrd[25]
*202 io_wbs_datrd[26]
*203 io_wbs_datrd[27]
*204 io_wbs_datrd[28]
*205 io_wbs_datrd[29]
*206 io_wbs_datrd[2]
*207 io_wbs_datrd[30]
*208 io_wbs_datrd[31]
*209 io_wbs_datrd[3]
*210 io_wbs_datrd[4]
*211 io_wbs_datrd[5]
*212 io_wbs_datrd[6]
*213 io_wbs_datrd[7]
*214 io_wbs_datrd[8]
*215 io_wbs_datrd[9]
*216 io_wbs_datwr[0]
*217 io_wbs_datwr[10]
*218 io_wbs_datwr[11]
*219 io_wbs_datwr[12]
*220 io_wbs_datwr[13]
*221 io_wbs_datwr[14]
*222 io_wbs_datwr[15]
*223 io_wbs_datwr[16]
*224 io_wbs_datwr[17]
*225 io_wbs_datwr[18]
*226 io_wbs_datwr[19]
*227 io_wbs_datwr[1]
*228 io_wbs_datwr[20]
*229 io_wbs_datwr[21]
*230 io_wbs_datwr[22]
*231 io_wbs_datwr[23]
*232 io_wbs_datwr[24]
*233 io_wbs_datwr[25]
*234 io_wbs_datwr[26]
*235 io_wbs_datwr[27]
*236 io_wbs_datwr[28]
*237 io_wbs_datwr[29]
*238 io_wbs_datwr[2]
*239 io_wbs_datwr[30]
*240 io_wbs_datwr[31]
*241 io_wbs_datwr[3]
*242 io_wbs_datwr[4]
*243 io_wbs_datwr[5]
*244 io_wbs_datwr[6]
*245 io_wbs_datwr[7]
*246 io_wbs_datwr[8]
*247 io_wbs_datwr[9]
*248 io_wbs_rst
*249 io_wbs_stb
*250 io_wbs_we
*253 web_mem0
*254 web_mem1
*255 net230
*256 net231
*257 net232
*258 net233
*259 net234
*260 net235
*261 net236
*262 net237
*263 _000_
*264 _001_
*265 _002_
*266 _003_
*267 _004_
*268 _005_
*269 _006_
*270 _007_
*271 _008_
*272 _009_
*273 _010_
*274 _011_
*275 _012_
*276 _013_
*277 _014_
*278 _015_
*279 _016_
*280 _017_
*281 _018_
*282 _019_
*283 _020_
*284 _021_
*285 _022_
*286 _023_
*287 _024_
*288 _025_
*289 _026_
*290 _027_
*291 _028_
*292 _029_
*293 _030_
*294 _031_
*295 _032_
*296 _033_
*297 _034_
*298 _035_
*299 _036_
*300 _037_
*301 _038_
*302 _039_
*303 _040_
*304 _041_
*305 _042_
*306 _043_
*307 _044_
*308 _045_
*309 _046_
*310 _047_
*311 _048_
*312 _049_
*313 _050_
*314 _051_
*315 _052_
*316 _053_
*317 _054_
*318 _055_
*319 _056_
*320 _057_
*321 _058_
*322 _059_
*323 _060_
*324 _061_
*325 _062_
*326 _063_
*327 _064_
*328 _065_
*329 _066_
*330 _067_
*331 _068_
*332 _069_
*333 _070_
*334 _071_
*335 _072_
*336 _073_
*337 _074_
*338 _075_
*339 _076_
*340 _077_
*341 _078_
*342 _079_
*343 _080_
*344 _081_
*345 _082_
*346 _083_
*347 _084_
*348 _085_
*349 _086_
*350 _087_
*351 _088_
*352 _089_
*353 _090_
*354 _091_
*355 _092_
*356 _093_
*357 _094_
*358 _095_
*359 _096_
*360 _097_
*361 _098_
*362 _099_
*363 _100_
*364 _101_
*365 _102_
*366 _103_
*367 _104_
*368 _105_
*369 _106_
*370 _107_
*371 _108_
*372 _109_
*373 _110_
*374 _111_
*375 _112_
*376 _113_
*377 _114_
*378 _115_
*379 _116_
*380 _117_
*381 _118_
*382 _119_
*383 _120_
*384 _121_
*385 _122_
*386 _123_
*387 _124_
*388 _125_
*389 _126_
*390 _127_
*391 _128_
*392 _129_
*393 _130_
*394 _131_
*395 _132_
*396 _133_
*397 _134_
*398 _135_
*399 _136_
*400 _137_
*401 _138_
*402 _139_
*403 _140_
*404 _141_
*405 _142_
*406 _143_
*407 _144_
*408 _145_
*409 _146_
*410 _147_
*411 _148_
*412 _149_
*413 _150_
*414 _151_
*415 _152_
*416 _153_
*417 _154_
*418 _155_
*419 _156_
*420 _157_
*421 _158_
*422 clknet_0_io_wbs_clk
*423 clknet_1_0_0_io_wbs_clk
*424 clknet_1_1_0_io_wbs_clk
*425 clknet_2_0_0_io_wbs_clk
*426 clknet_2_1_0_io_wbs_clk
*427 clknet_2_2_0_io_wbs_clk
*428 clknet_2_3_0_io_wbs_clk
*429 net1
*430 net10
*431 net100
*432 net101
*433 net102
*434 net103
*435 net104
*436 net105
*437 net106
*438 net107
*439 net108
*440 net109
*441 net11
*442 net110
*443 net111
*444 net112
*445 net113
*446 net114
*447 net115
*448 net116
*449 net117
*450 net118
*451 net119
*452 net12
*453 net120
*454 net121
*455 net122
*456 net123
*457 net124
*458 net125
*459 net126
*460 net127
*461 net128
*462 net129
*463 net13
*464 net130
*465 net131
*466 net132
*467 net133
*468 net134
*469 net135
*470 net136
*471 net137
*472 net138
*473 net139
*474 net14
*475 net140
*476 net141
*477 net142
*478 net143
*479 net144
*480 net145
*481 net146
*482 net147
*483 net148
*484 net149
*485 net15
*486 net150
*487 net151
*488 net152
*489 net153
*490 net154
*491 net155
*492 net156
*493 net157
*494 net158
*495 net159
*496 net16
*497 net160
*498 net161
*499 net162
*500 net163
*501 net164
*502 net165
*503 net166
*504 net167
*505 net168
*506 net169
*507 net17
*508 net170
*509 net171
*510 net172
*511 net173
*512 net174
*513 net175
*514 net176
*515 net177
*516 net178
*517 net179
*518 net18
*519 net180
*520 net181
*521 net182
*522 net183
*523 net184
*524 net185
*525 net186
*526 net187
*527 net188
*528 net189
*529 net19
*530 net190
*531 net191
*532 net192
*533 net193
*534 net194
*535 net195
*536 net196
*537 net197
*538 net198
*539 net199
*540 net2
*541 net20
*542 net200
*543 net201
*544 net202
*545 net203
*546 net204
*547 net205
*548 net206
*549 net207
*550 net208
*551 net209
*552 net21
*553 net210
*554 net211
*555 net212
*556 net213
*557 net214
*558 net215
*559 net216
*560 net217
*561 net218
*562 net219
*563 net22
*564 net220
*565 net221
*566 net222
*567 net223
*568 net224
*569 net225
*570 net226
*571 net227
*572 net23
*573 net24
*574 net25
*575 net26
*576 net27
*577 net28
*578 net29
*579 net3
*580 net30
*581 net31
*582 net32
*583 net33
*584 net34
*585 net35
*586 net36
*587 net37
*588 net38
*589 net39
*590 net4
*591 net40
*592 net41
*593 net42
*594 net43
*595 net44
*596 net45
*597 net46
*598 net47
*599 net48
*600 net49
*601 net5
*602 net50
*603 net51
*604 net52
*605 net53
*606 net54
*607 net55
*608 net56
*609 net57
*610 net58
*611 net59
*612 net6
*613 net60
*614 net61
*615 net62
*616 net63
*617 net64
*618 net65
*619 net66
*620 net67
*621 net68
*622 net69
*623 net7
*624 net70
*625 net71
*626 net72
*627 net73
*628 net74
*629 net75
*630 net76
*631 net77
*632 net78
*633 net79
*634 net8
*635 net80
*636 net81
*637 net82
*638 net83
*639 net84
*640 net85
*641 net86
*642 net87
*643 net88
*644 net89
*645 net9
*646 net90
*647 net91
*648 net92
*649 net93
*650 net94
*651 net95
*652 net96
*653 net97
*654 net98
*655 net99
*656 web_mem
*657 ANTENNA__161__A
*658 ANTENNA__162__A
*659 ANTENNA__164__A0
*660 ANTENNA__164__A1
*661 ANTENNA__164__S
*662 ANTENNA__165__A1
*663 ANTENNA__165__S
*664 ANTENNA__167__A0
*665 ANTENNA__167__A1
*666 ANTENNA__167__S
*667 ANTENNA__168__S
*668 ANTENNA__170__A0
*669 ANTENNA__170__A1
*670 ANTENNA__170__S
*671 ANTENNA__171__A1
*672 ANTENNA__171__S
*673 ANTENNA__173__A
*674 ANTENNA__174__A
*675 ANTENNA__175__S
*676 ANTENNA__177__A
*677 ANTENNA__178__A1
*678 ANTENNA__180__A1
*679 ANTENNA__180__S
*680 ANTENNA__181__A1
*681 ANTENNA__183__A0
*682 ANTENNA__183__A1
*683 ANTENNA__183__S
*684 ANTENNA__184__A1
*685 ANTENNA__186__A0
*686 ANTENNA__186__S
*687 ANTENNA__187__A1
*688 ANTENNA__189__A0
*689 ANTENNA__189__S
*690 ANTENNA__190__A1
*691 ANTENNA__193__A0
*692 ANTENNA__193__A1
*693 ANTENNA__193__S
*694 ANTENNA__194__A
*695 ANTENNA__197__S
*696 ANTENNA__198__A1
*697 ANTENNA__200__S
*698 ANTENNA__201__A1
*699 ANTENNA__203__A0
*700 ANTENNA__203__A1
*701 ANTENNA__203__S
*702 ANTENNA__206__A0
*703 ANTENNA__206__A1
*704 ANTENNA__206__S
*705 ANTENNA__210__A0
*706 ANTENNA__210__A1
*707 ANTENNA__210__S
*708 ANTENNA__211__A
*709 ANTENNA__212__A1
*710 ANTENNA__214__A0
*711 ANTENNA__214__A1
*712 ANTENNA__214__S
*713 ANTENNA__215__A1
*714 ANTENNA__217__A0
*715 ANTENNA__217__A1
*716 ANTENNA__217__S
*717 ANTENNA__218__A1
*718 ANTENNA__220__A0
*719 ANTENNA__220__A1
*720 ANTENNA__220__S
*721 ANTENNA__221__A1
*722 ANTENNA__223__S
*723 ANTENNA__224__A1
*724 ANTENNA__227__A0
*725 ANTENNA__227__A1
*726 ANTENNA__227__S
*727 ANTENNA__228__A
*728 ANTENNA__229__A1
*729 ANTENNA__231__A0
*730 ANTENNA__231__S
*731 ANTENNA__232__A1
*732 ANTENNA__234__A0
*733 ANTENNA__234__A1
*734 ANTENNA__234__S
*735 ANTENNA__235__A1
*736 ANTENNA__237__S
*737 ANTENNA__238__A1
*738 ANTENNA__240__A1
*739 ANTENNA__240__S
*740 ANTENNA__241__A1
*741 ANTENNA__244__A0
*742 ANTENNA__244__A1
*743 ANTENNA__244__S
*744 ANTENNA__245__A
*745 ANTENNA__248__S
*746 ANTENNA__249__A1
*747 ANTENNA__251__A1
*748 ANTENNA__251__S
*749 ANTENNA__252__A1
*750 ANTENNA__254__A0
*751 ANTENNA__254__A1
*752 ANTENNA__254__S
*753 ANTENNA__255__A1
*754 ANTENNA__257__S
*755 ANTENNA__258__A1
*756 ANTENNA__260__A0
*757 ANTENNA__260__A1
*758 ANTENNA__260__S
*759 ANTENNA__261__A1
*760 ANTENNA__261__S
*761 ANTENNA__263__S
*762 ANTENNA__264__S
*763 ANTENNA__266__A0
*764 ANTENNA__266__A1
*765 ANTENNA__266__S
*766 ANTENNA__267__A1
*767 ANTENNA__267__S
*768 ANTENNA__269__A0
*769 ANTENNA__269__A1
*770 ANTENNA__269__S
*771 ANTENNA__270__S
*772 ANTENNA__272__A_N
*773 ANTENNA__274__B
*774 ANTENNA__276__B
*775 ANTENNA__278__A
*776 ANTENNA__279__A
*777 ANTENNA__285__A
*778 ANTENNA__286__A
*779 ANTENNA__292__A
*780 ANTENNA__298__A
*781 ANTENNA__304__A
*782 ANTENNA__310__A
*783 ANTENNA__316__A
*784 ANTENNA__317__A
*785 ANTENNA__318__A
*786 ANTENNA__319__A
*787 ANTENNA__320__CLK
*788 ANTENNA__321__CLK
*789 ANTENNA__322__CLK
*790 ANTENNA__323__CLK
*791 ANTENNA__324__CLK
*792 ANTENNA__325__CLK
*793 ANTENNA__326__CLK
*794 ANTENNA__327__CLK
*795 ANTENNA__328__CLK
*796 ANTENNA__329__CLK
*797 ANTENNA__330__CLK
*798 ANTENNA__331__CLK
*799 ANTENNA__332__CLK
*800 ANTENNA__333__CLK
*801 ANTENNA__334__CLK
*802 ANTENNA__335__CLK
*803 ANTENNA__336__CLK
*804 ANTENNA__337__CLK
*805 ANTENNA__338__CLK
*806 ANTENNA__339__CLK
*807 ANTENNA__340__CLK
*808 ANTENNA__341__CLK
*809 ANTENNA__342__CLK
*810 ANTENNA__343__CLK
*811 ANTENNA__344__CLK
*812 ANTENNA__345__CLK
*813 ANTENNA__346__CLK
*814 ANTENNA__347__CLK
*815 ANTENNA__348__CLK
*816 ANTENNA__349__CLK
*817 ANTENNA__350__CLK
*818 ANTENNA__351__CLK
*819 ANTENNA__352__CLK
*820 ANTENNA__352__D
*821 ANTENNA__353__CLK
*822 ANTENNA__365__A
*823 ANTENNA__366__A
*824 ANTENNA__367__A
*825 ANTENNA__369__A
*826 ANTENNA__370__A
*827 ANTENNA__371__A
*828 ANTENNA__372__A
*829 ANTENNA__374__A
*830 ANTENNA__375__A
*831 ANTENNA__376__A
*832 ANTENNA__378__A
*833 ANTENNA__379__A
*834 ANTENNA__380__A
*835 ANTENNA__381__A
*836 ANTENNA__383__A
*837 ANTENNA__384__A
*838 ANTENNA__385__A
*839 ANTENNA__386__A
*840 ANTENNA__387__A
*841 ANTENNA__388__A
*842 ANTENNA__389__A
*843 ANTENNA__390__A
*844 ANTENNA__391__A
*845 ANTENNA__392__A
*846 ANTENNA__393__A
*847 ANTENNA__394__A
*848 ANTENNA__395__A
*849 ANTENNA__396__A
*850 ANTENNA__397__A
*851 ANTENNA__398__A
*852 ANTENNA__399__A
*853 ANTENNA__400__A
*854 ANTENNA__402__A
*855 ANTENNA__403__A
*856 ANTENNA__404__A
*857 ANTENNA__405__A
*858 ANTENNA__406__A
*859 ANTENNA__407__A
*860 ANTENNA__409__A
*861 ANTENNA__410__A
*862 ANTENNA__411__A
*863 ANTENNA__412__A
*864 ANTENNA__413__A
*865 ANTENNA__415__A
*866 ANTENNA__416__A
*867 ANTENNA__417__A
*868 ANTENNA__418__A
*869 ANTENNA__419__A
*870 ANTENNA__420__A
*871 ANTENNA__421__A
*872 ANTENNA__422__A
*873 ANTENNA__423__A
*874 ANTENNA__424__A
*875 ANTENNA__425__A
*876 ANTENNA__426__A
*877 ANTENNA__427__A
*878 ANTENNA__428__A
*879 ANTENNA__429__A
*880 ANTENNA__430__A
*881 ANTENNA__431__A
*882 ANTENNA__432__A
*883 ANTENNA__434__A
*884 ANTENNA__435__A
*885 ANTENNA__436__A
*886 ANTENNA__437__A
*887 ANTENNA__438__A
*888 ANTENNA__439__A
*889 ANTENNA__441__A
*890 ANTENNA__442__A
*891 ANTENNA__443__A
*892 ANTENNA__444__A
*893 ANTENNA__445__A
*894 ANTENNA_clkbuf_0_io_wbs_clk_A
*895 ANTENNA_input100_A
*896 ANTENNA_input101_A
*897 ANTENNA_input102_A
*898 ANTENNA_input103_A
*899 ANTENNA_input104_A
*900 ANTENNA_input105_A
*901 ANTENNA_input106_A
*902 ANTENNA_input107_A
*903 ANTENNA_input108_A
*904 ANTENNA_input109_A
*905 ANTENNA_input10_A
*906 ANTENNA_input110_A
*907 ANTENNA_input11_A
*908 ANTENNA_input12_A
*909 ANTENNA_input13_A
*910 ANTENNA_input14_A
*911 ANTENNA_input15_A
*912 ANTENNA_input16_A
*913 ANTENNA_input17_A
*914 ANTENNA_input18_A
*915 ANTENNA_input19_A
*916 ANTENNA_input1_A
*917 ANTENNA_input20_A
*918 ANTENNA_input21_A
*919 ANTENNA_input22_A
*920 ANTENNA_input23_A
*921 ANTENNA_input24_A
*922 ANTENNA_input25_A
*923 ANTENNA_input26_A
*924 ANTENNA_input27_A
*925 ANTENNA_input28_A
*926 ANTENNA_input29_A
*927 ANTENNA_input2_A
*928 ANTENNA_input30_A
*929 ANTENNA_input31_A
*930 ANTENNA_input32_A
*931 ANTENNA_input33_A
*932 ANTENNA_input34_A
*933 ANTENNA_input35_A
*934 ANTENNA_input36_A
*935 ANTENNA_input37_A
*936 ANTENNA_input38_A
*937 ANTENNA_input39_A
*938 ANTENNA_input3_A
*939 ANTENNA_input40_A
*940 ANTENNA_input41_A
*941 ANTENNA_input42_A
*942 ANTENNA_input43_A
*943 ANTENNA_input44_A
*944 ANTENNA_input45_A
*945 ANTENNA_input46_A
*946 ANTENNA_input47_A
*947 ANTENNA_input48_A
*948 ANTENNA_input49_A
*949 ANTENNA_input4_A
*950 ANTENNA_input50_A
*951 ANTENNA_input51_A
*952 ANTENNA_input52_A
*953 ANTENNA_input53_A
*954 ANTENNA_input54_A
*955 ANTENNA_input55_A
*956 ANTENNA_input56_A
*957 ANTENNA_input57_A
*958 ANTENNA_input58_A
*959 ANTENNA_input59_A
*960 ANTENNA_input5_A
*961 ANTENNA_input60_A
*962 ANTENNA_input61_A
*963 ANTENNA_input62_A
*964 ANTENNA_input63_A
*965 ANTENNA_input64_A
*966 ANTENNA_input65_A
*967 ANTENNA_input66_A
*968 ANTENNA_input67_A
*969 ANTENNA_input68_A
*970 ANTENNA_input69_A
*971 ANTENNA_input6_A
*972 ANTENNA_input70_A
*973 ANTENNA_input71_A
*974 ANTENNA_input72_A
*975 ANTENNA_input73_A
*976 ANTENNA_input74_A
*977 ANTENNA_input75_A
*978 ANTENNA_input76_A
*979 ANTENNA_input77_A
*980 ANTENNA_input78_A
*981 ANTENNA_input79_A
*982 ANTENNA_input7_A
*983 ANTENNA_input80_A
*984 ANTENNA_input81_A
*985 ANTENNA_input82_A
*986 ANTENNA_input83_A
*987 ANTENNA_input84_A
*988 ANTENNA_input85_A
*989 ANTENNA_input86_A
*990 ANTENNA_input87_A
*991 ANTENNA_input88_A
*992 ANTENNA_input89_A
*993 ANTENNA_input8_A
*994 ANTENNA_input90_A
*995 ANTENNA_input91_A
*996 ANTENNA_input92_A
*997 ANTENNA_input93_A
*998 ANTENNA_input94_A
*999 ANTENNA_input95_A
*1000 ANTENNA_input96_A
*1001 ANTENNA_input97_A
*1002 ANTENNA_input98_A
*1003 ANTENNA_input99_A
*1004 ANTENNA_input9_A
*1005 ANTENNA_output111_A
*1006 ANTENNA_output115_A
*1007 ANTENNA_output118_A
*1008 ANTENNA_output120_A
*1009 ANTENNA_output124_A
*1010 ANTENNA_output127_A
*1011 ANTENNA_output129_A
*1012 ANTENNA_output130_A
*1013 ANTENNA_output131_A
*1014 ANTENNA_output132_A
*1015 ANTENNA_output133_A
*1016 ANTENNA_output134_A
*1017 ANTENNA_output135_A
*1018 ANTENNA_output137_A
*1019 ANTENNA_output139_A
*1020 ANTENNA_output143_A
*1021 ANTENNA_output144_A
*1022 ANTENNA_output146_A
*1023 ANTENNA_output147_A
*1024 ANTENNA_output148_A
*1025 ANTENNA_output150_A
*1026 ANTENNA_output156_A
*1027 ANTENNA_output157_A
*1028 ANTENNA_output158_A
*1029 ANTENNA_output159_A
*1030 ANTENNA_output162_A
*1031 ANTENNA_output163_A
*1032 ANTENNA_output164_A
*1033 ANTENNA_output165_A
*1034 ANTENNA_output166_A
*1035 ANTENNA_output167_A
*1036 ANTENNA_output169_A
*1037 ANTENNA_output170_A
*1038 ANTENNA_output171_A
*1039 ANTENNA_output172_A
*1040 ANTENNA_output175_A
*1041 ANTENNA_output176_A
*1042 ANTENNA_output179_A
*1043 ANTENNA_output182_A
*1044 ANTENNA_output185_A
*1045 ANTENNA_output188_A
*1046 ANTENNA_output189_A
*1047 ANTENNA_output190_A
*1048 ANTENNA_output191_A
*1049 ANTENNA_output192_A
*1050 ANTENNA_output226_A
*1051 FILLER_0_100
*1052 FILLER_0_1004
*1053 FILLER_0_1009
*1054 FILLER_0_1013
*1055 FILLER_0_1020
*1056 FILLER_0_1026
*1057 FILLER_0_1032
*1058 FILLER_0_1041
*1059 FILLER_0_1053
*1060 FILLER_0_1057
*1061 FILLER_0_1060
*1062 FILLER_0_1065
*1063 FILLER_0_1073
*1064 FILLER_0_108
*1065 FILLER_0_1088
*1066 FILLER_0_1095
*1067 FILLER_0_1101
*1068 FILLER_0_1106
*1069 FILLER_0_1116
*1070 FILLER_0_1121
*1071 FILLER_0_1131
*1072 FILLER_0_1135
*1073 FILLER_0_1140
*1074 FILLER_0_1153
*1075 FILLER_0_1157
*1076 FILLER_0_1162
*1077 FILLER_0_1168
*1078 FILLER_0_1172
*1079 FILLER_0_1177
*1080 FILLER_0_1183
*1081 FILLER_0_1195
*1082 FILLER_0_1203
*1083 FILLER_0_1209
*1084 FILLER_0_1217
*1085 FILLER_0_122
*1086 FILLER_0_1223
*1087 FILLER_0_1228
*1088 FILLER_0_1233
*1089 FILLER_0_1239
*1090 FILLER_0_1245
*1091 FILLER_0_1250
*1092 FILLER_0_1256
*1093 FILLER_0_1264
*1094 FILLER_0_1268
*1095 FILLER_0_1280
*1096 FILLER_0_1293
*1097 FILLER_0_1301
*1098 FILLER_0_1305
*1099 FILLER_0_1311
*1100 FILLER_0_1315
*1101 FILLER_0_1320
*1102 FILLER_0_1327
*1103 FILLER_0_1339
*1104 FILLER_0_1343
*1105 FILLER_0_1345
*1106 FILLER_0_1350
*1107 FILLER_0_1356
*1108 FILLER_0_136
*1109 FILLER_0_1360
*1110 FILLER_0_1364
*1111 FILLER_0_1368
*1112 FILLER_0_1373
*1113 FILLER_0_1377
*1114 FILLER_0_1382
*1115 FILLER_0_1396
*1116 FILLER_0_1401
*1117 FILLER_0_1406
*1118 FILLER_0_141
*1119 FILLER_0_1412
*1120 FILLER_0_1417
*1121 FILLER_0_1421
*1122 FILLER_0_1424
*1123 FILLER_0_1435
*1124 FILLER_0_1443
*1125 FILLER_0_1451
*1126 FILLER_0_1455
*1127 FILLER_0_1463
*1128 FILLER_0_1467
*1129 FILLER_0_1472
*1130 FILLER_0_1480
*1131 FILLER_0_1485
*1132 FILLER_0_1489
*1133 FILLER_0_1496
*1134 FILLER_0_1506
*1135 FILLER_0_1517
*1136 FILLER_0_1523
*1137 FILLER_0_1528
*1138 FILLER_0_1532
*1139 FILLER_0_1536
*1140 FILLER_0_1541
*1141 FILLER_0_1545
*1142 FILLER_0_1550
*1143 FILLER_0_1556
*1144 FILLER_0_1561
*1145 FILLER_0_1567
*1146 FILLER_0_1569
*1147 FILLER_0_1575
*1148 FILLER_0_1583
*1149 FILLER_0_1587
*1150 FILLER_0_1592
*1151 FILLER_0_1599
*1152 FILLER_0_16
*1153 FILLER_0_164
*1154 FILLER_0_169
*1155 FILLER_0_179
*1156 FILLER_0_192
*1157 FILLER_0_206
*1158 FILLER_0_210
*1159 FILLER_0_220
*1160 FILLER_0_225
*1161 FILLER_0_239
*1162 FILLER_0_24
*1163 FILLER_0_243
*1164 FILLER_0_248
*1165 FILLER_0_255
*1166 FILLER_0_259
*1167 FILLER_0_270
*1168 FILLER_0_276
*1169 FILLER_0_281
*1170 FILLER_0_289
*1171 FILLER_0_302
*1172 FILLER_0_309
*1173 FILLER_0_316
*1174 FILLER_0_332
*1175 FILLER_0_341
*1176 FILLER_0_347
*1177 FILLER_0_352
*1178 FILLER_0_358
*1179 FILLER_0_365
*1180 FILLER_0_37
*1181 FILLER_0_373
*1182 FILLER_0_388
*1183 FILLER_0_402
*1184 FILLER_0_408
*1185 FILLER_0_416
*1186 FILLER_0_421
*1187 FILLER_0_43
*1188 FILLER_0_433
*1189 FILLER_0_441
*1190 FILLER_0_447
*1191 FILLER_0_453
*1192 FILLER_0_459
*1193 FILLER_0_467
*1194 FILLER_0_472
*1195 FILLER_0_486
*1196 FILLER_0_49
*1197 FILLER_0_496
*1198 FILLER_0_509
*1199 FILLER_0_519
*1200 FILLER_0_525
*1201 FILLER_0_528
*1202 FILLER_0_533
*1203 FILLER_0_543
*1204 FILLER_0_547
*1205 FILLER_0_55
*1206 FILLER_0_552
*1207 FILLER_0_563
*1208 FILLER_0_569
*1209 FILLER_0_574
*1210 FILLER_0_584
*1211 FILLER_0_589
*1212 FILLER_0_60
*1213 FILLER_0_600
*1214 FILLER_0_608
*1215 FILLER_0_626
*1216 FILLER_0_632
*1217 FILLER_0_640
*1218 FILLER_0_654
*1219 FILLER_0_660
*1220 FILLER_0_666
*1221 FILLER_0_67
*1222 FILLER_0_677
*1223 FILLER_0_687
*1224 FILLER_0_691
*1225 FILLER_0_695
*1226 FILLER_0_699
*1227 FILLER_0_7
*1228 FILLER_0_710
*1229 FILLER_0_718
*1230 FILLER_0_724
*1231 FILLER_0_732
*1232 FILLER_0_740
*1233 FILLER_0_75
*1234 FILLER_0_752
*1235 FILLER_0_766
*1236 FILLER_0_774
*1237 FILLER_0_780
*1238 FILLER_0_791
*1239 FILLER_0_799
*1240 FILLER_0_807
*1241 FILLER_0_811
*1242 FILLER_0_819
*1243 FILLER_0_83
*1244 FILLER_0_832
*1245 FILLER_0_843
*1246 FILLER_0_853
*1247 FILLER_0_859
*1248 FILLER_0_867
*1249 FILLER_0_873
*1250 FILLER_0_88
*1251 FILLER_0_887
*1252 FILLER_0_895
*1253 FILLER_0_897
*1254 FILLER_0_910
*1255 FILLER_0_920
*1256 FILLER_0_927
*1257 FILLER_0_935
*1258 FILLER_0_94
*1259 FILLER_0_940
*1260 FILLER_0_956
*1261 FILLER_0_962
*1262 FILLER_0_968
*1263 FILLER_0_973
*1264 FILLER_0_979
*1265 FILLER_0_981
*1266 FILLER_0_991
*1267 FILLER_0_999
*1268 FILLER_100_1005
*1269 FILLER_100_1017
*1270 FILLER_100_1029
*1271 FILLER_100_1035
*1272 FILLER_100_1037
*1273 FILLER_100_1049
*1274 FILLER_100_1061
*1275 FILLER_100_1073
*1276 FILLER_100_1085
*1277 FILLER_100_109
*1278 FILLER_100_1091
*1279 FILLER_100_1093
*1280 FILLER_100_1105
*1281 FILLER_100_1117
*1282 FILLER_100_1129
*1283 FILLER_100_1141
*1284 FILLER_100_1147
*1285 FILLER_100_1149
*1286 FILLER_100_1161
*1287 FILLER_100_1173
*1288 FILLER_100_1185
*1289 FILLER_100_1197
*1290 FILLER_100_1203
*1291 FILLER_100_1205
*1292 FILLER_100_121
*1293 FILLER_100_1217
*1294 FILLER_100_1229
*1295 FILLER_100_1241
*1296 FILLER_100_1253
*1297 FILLER_100_1259
*1298 FILLER_100_1261
*1299 FILLER_100_1273
*1300 FILLER_100_1285
*1301 FILLER_100_1297
*1302 FILLER_100_1309
*1303 FILLER_100_1315
*1304 FILLER_100_1317
*1305 FILLER_100_1329
*1306 FILLER_100_133
*1307 FILLER_100_1341
*1308 FILLER_100_1353
*1309 FILLER_100_1365
*1310 FILLER_100_1371
*1311 FILLER_100_1373
*1312 FILLER_100_1385
*1313 FILLER_100_139
*1314 FILLER_100_1397
*1315 FILLER_100_1409
*1316 FILLER_100_141
*1317 FILLER_100_1421
*1318 FILLER_100_1427
*1319 FILLER_100_1429
*1320 FILLER_100_1441
*1321 FILLER_100_1453
*1322 FILLER_100_1465
*1323 FILLER_100_1477
*1324 FILLER_100_1483
*1325 FILLER_100_1485
*1326 FILLER_100_1497
*1327 FILLER_100_15
*1328 FILLER_100_1509
*1329 FILLER_100_1521
*1330 FILLER_100_153
*1331 FILLER_100_1533
*1332 FILLER_100_1539
*1333 FILLER_100_1541
*1334 FILLER_100_1553
*1335 FILLER_100_1565
*1336 FILLER_100_1577
*1337 FILLER_100_1589
*1338 FILLER_100_1595
*1339 FILLER_100_1597
*1340 FILLER_100_165
*1341 FILLER_100_177
*1342 FILLER_100_189
*1343 FILLER_100_195
*1344 FILLER_100_197
*1345 FILLER_100_209
*1346 FILLER_100_221
*1347 FILLER_100_233
*1348 FILLER_100_245
*1349 FILLER_100_251
*1350 FILLER_100_253
*1351 FILLER_100_265
*1352 FILLER_100_27
*1353 FILLER_100_277
*1354 FILLER_100_289
*1355 FILLER_100_29
*1356 FILLER_100_3
*1357 FILLER_100_301
*1358 FILLER_100_307
*1359 FILLER_100_309
*1360 FILLER_100_321
*1361 FILLER_100_333
*1362 FILLER_100_345
*1363 FILLER_100_357
*1364 FILLER_100_363
*1365 FILLER_100_365
*1366 FILLER_100_377
*1367 FILLER_100_389
*1368 FILLER_100_401
*1369 FILLER_100_41
*1370 FILLER_100_413
*1371 FILLER_100_419
*1372 FILLER_100_421
*1373 FILLER_100_433
*1374 FILLER_100_445
*1375 FILLER_100_457
*1376 FILLER_100_469
*1377 FILLER_100_475
*1378 FILLER_100_477
*1379 FILLER_100_489
*1380 FILLER_100_501
*1381 FILLER_100_513
*1382 FILLER_100_525
*1383 FILLER_100_53
*1384 FILLER_100_531
*1385 FILLER_100_533
*1386 FILLER_100_545
*1387 FILLER_100_557
*1388 FILLER_100_569
*1389 FILLER_100_581
*1390 FILLER_100_587
*1391 FILLER_100_589
*1392 FILLER_100_601
*1393 FILLER_100_613
*1394 FILLER_100_625
*1395 FILLER_100_637
*1396 FILLER_100_643
*1397 FILLER_100_645
*1398 FILLER_100_65
*1399 FILLER_100_657
*1400 FILLER_100_669
*1401 FILLER_100_681
*1402 FILLER_100_693
*1403 FILLER_100_699
*1404 FILLER_100_701
*1405 FILLER_100_713
*1406 FILLER_100_725
*1407 FILLER_100_737
*1408 FILLER_100_749
*1409 FILLER_100_755
*1410 FILLER_100_757
*1411 FILLER_100_769
*1412 FILLER_100_77
*1413 FILLER_100_781
*1414 FILLER_100_793
*1415 FILLER_100_805
*1416 FILLER_100_811
*1417 FILLER_100_813
*1418 FILLER_100_825
*1419 FILLER_100_83
*1420 FILLER_100_837
*1421 FILLER_100_849
*1422 FILLER_100_85
*1423 FILLER_100_861
*1424 FILLER_100_867
*1425 FILLER_100_869
*1426 FILLER_100_881
*1427 FILLER_100_893
*1428 FILLER_100_905
*1429 FILLER_100_917
*1430 FILLER_100_923
*1431 FILLER_100_925
*1432 FILLER_100_937
*1433 FILLER_100_949
*1434 FILLER_100_961
*1435 FILLER_100_97
*1436 FILLER_100_973
*1437 FILLER_100_979
*1438 FILLER_100_981
*1439 FILLER_100_993
*1440 FILLER_101_1001
*1441 FILLER_101_1007
*1442 FILLER_101_1009
*1443 FILLER_101_1021
*1444 FILLER_101_1033
*1445 FILLER_101_1045
*1446 FILLER_101_105
*1447 FILLER_101_1057
*1448 FILLER_101_1063
*1449 FILLER_101_1065
*1450 FILLER_101_1077
*1451 FILLER_101_1089
*1452 FILLER_101_1101
*1453 FILLER_101_111
*1454 FILLER_101_1113
*1455 FILLER_101_1119
*1456 FILLER_101_1121
*1457 FILLER_101_113
*1458 FILLER_101_1133
*1459 FILLER_101_1145
*1460 FILLER_101_1157
*1461 FILLER_101_1169
*1462 FILLER_101_1175
*1463 FILLER_101_1177
*1464 FILLER_101_1189
*1465 FILLER_101_1201
*1466 FILLER_101_1213
*1467 FILLER_101_1225
*1468 FILLER_101_1231
*1469 FILLER_101_1233
*1470 FILLER_101_1245
*1471 FILLER_101_125
*1472 FILLER_101_1257
*1473 FILLER_101_1269
*1474 FILLER_101_1281
*1475 FILLER_101_1287
*1476 FILLER_101_1289
*1477 FILLER_101_1301
*1478 FILLER_101_1313
*1479 FILLER_101_1325
*1480 FILLER_101_1337
*1481 FILLER_101_1343
*1482 FILLER_101_1345
*1483 FILLER_101_1357
*1484 FILLER_101_1369
*1485 FILLER_101_137
*1486 FILLER_101_1381
*1487 FILLER_101_1393
*1488 FILLER_101_1399
*1489 FILLER_101_1401
*1490 FILLER_101_1413
*1491 FILLER_101_1425
*1492 FILLER_101_1437
*1493 FILLER_101_1449
*1494 FILLER_101_1455
*1495 FILLER_101_1457
*1496 FILLER_101_1469
*1497 FILLER_101_1481
*1498 FILLER_101_149
*1499 FILLER_101_1493
*1500 FILLER_101_15
*1501 FILLER_101_1505
*1502 FILLER_101_1511
*1503 FILLER_101_1513
*1504 FILLER_101_1525
*1505 FILLER_101_1537
*1506 FILLER_101_1549
*1507 FILLER_101_1561
*1508 FILLER_101_1567
*1509 FILLER_101_1569
*1510 FILLER_101_1581
*1511 FILLER_101_1593
*1512 FILLER_101_1601
*1513 FILLER_101_161
*1514 FILLER_101_167
*1515 FILLER_101_169
*1516 FILLER_101_181
*1517 FILLER_101_193
*1518 FILLER_101_205
*1519 FILLER_101_217
*1520 FILLER_101_223
*1521 FILLER_101_225
*1522 FILLER_101_237
*1523 FILLER_101_249
*1524 FILLER_101_261
*1525 FILLER_101_27
*1526 FILLER_101_273
*1527 FILLER_101_279
*1528 FILLER_101_281
*1529 FILLER_101_293
*1530 FILLER_101_3
*1531 FILLER_101_305
*1532 FILLER_101_317
*1533 FILLER_101_329
*1534 FILLER_101_335
*1535 FILLER_101_337
*1536 FILLER_101_349
*1537 FILLER_101_361
*1538 FILLER_101_373
*1539 FILLER_101_385
*1540 FILLER_101_39
*1541 FILLER_101_391
*1542 FILLER_101_393
*1543 FILLER_101_405
*1544 FILLER_101_417
*1545 FILLER_101_429
*1546 FILLER_101_441
*1547 FILLER_101_447
*1548 FILLER_101_449
*1549 FILLER_101_461
*1550 FILLER_101_473
*1551 FILLER_101_485
*1552 FILLER_101_497
*1553 FILLER_101_503
*1554 FILLER_101_505
*1555 FILLER_101_51
*1556 FILLER_101_517
*1557 FILLER_101_529
*1558 FILLER_101_541
*1559 FILLER_101_55
*1560 FILLER_101_553
*1561 FILLER_101_559
*1562 FILLER_101_561
*1563 FILLER_101_57
*1564 FILLER_101_573
*1565 FILLER_101_585
*1566 FILLER_101_597
*1567 FILLER_101_609
*1568 FILLER_101_615
*1569 FILLER_101_617
*1570 FILLER_101_629
*1571 FILLER_101_641
*1572 FILLER_101_653
*1573 FILLER_101_665
*1574 FILLER_101_671
*1575 FILLER_101_673
*1576 FILLER_101_685
*1577 FILLER_101_69
*1578 FILLER_101_697
*1579 FILLER_101_709
*1580 FILLER_101_721
*1581 FILLER_101_727
*1582 FILLER_101_729
*1583 FILLER_101_741
*1584 FILLER_101_753
*1585 FILLER_101_765
*1586 FILLER_101_777
*1587 FILLER_101_783
*1588 FILLER_101_785
*1589 FILLER_101_797
*1590 FILLER_101_809
*1591 FILLER_101_81
*1592 FILLER_101_821
*1593 FILLER_101_833
*1594 FILLER_101_839
*1595 FILLER_101_841
*1596 FILLER_101_853
*1597 FILLER_101_865
*1598 FILLER_101_877
*1599 FILLER_101_889
*1600 FILLER_101_895
*1601 FILLER_101_897
*1602 FILLER_101_909
*1603 FILLER_101_921
*1604 FILLER_101_93
*1605 FILLER_101_933
*1606 FILLER_101_945