*SPEF "ieee 1481-1999"
*DESIGN "wb_mux"
*DATE "11:11:11 Fri 11 11, 1111"
*VENDOR "OpenRCX"
*PROGRAM "Parallel Extraction"
*VERSION "1.0"
*DESIGN_FLOW "NAME_SCOPE LOCAL" "PIN_CAP NONE"
*DIVIDER /
*DELIMITER :
*BUS_DELIMITER []
*T_UNIT 1 NS
*C_UNIT 1 PF
*R_UNIT 1 OHM
*L_UNIT 1 HENRY

*NAME_MAP
*1 io_wbs_ack
*2 io_wbs_ack_0
*3 io_wbs_ack_1
*4 io_wbs_adr[0]
*5 io_wbs_adr[10]
*6 io_wbs_adr[11]
*7 io_wbs_adr[12]
*8 io_wbs_adr[13]
*9 io_wbs_adr[14]
*10 io_wbs_adr[15]
*11 io_wbs_adr[16]
*12 io_wbs_adr[17]
*13 io_wbs_adr[18]
*14 io_wbs_adr[19]
*15 io_wbs_adr[1]
*16 io_wbs_adr[20]
*17 io_wbs_adr[21]
*18 io_wbs_adr[22]
*19 io_wbs_adr[23]
*20 io_wbs_adr[24]
*21 io_wbs_adr[25]
*22 io_wbs_adr[26]
*23 io_wbs_adr[27]
*24 io_wbs_adr[28]
*25 io_wbs_adr[29]
*26 io_wbs_adr[2]
*27 io_wbs_adr[30]
*28 io_wbs_adr[31]
*29 io_wbs_adr[3]
*30 io_wbs_adr[4]
*31 io_wbs_adr[5]
*32 io_wbs_adr[6]
*33 io_wbs_adr[7]
*34 io_wbs_adr[8]
*35 io_wbs_adr[9]
*36 io_wbs_adr_0[0]
*37 io_wbs_adr_0[10]
*38 io_wbs_adr_0[11]
*39 io_wbs_adr_0[12]
*40 io_wbs_adr_0[13]
*41 io_wbs_adr_0[14]
*42 io_wbs_adr_0[15]
*43 io_wbs_adr_0[16]
*44 io_wbs_adr_0[17]
*45 io_wbs_adr_0[18]
*46 io_wbs_adr_0[19]
*47 io_wbs_adr_0[1]
*48 io_wbs_adr_0[20]
*49 io_wbs_adr_0[21]
*50 io_wbs_adr_0[22]
*51 io_wbs_adr_0[23]
*52 io_wbs_adr_0[24]
*53 io_wbs_adr_0[25]
*54 io_wbs_adr_0[26]
*55 io_wbs_adr_0[27]
*56 io_wbs_adr_0[28]
*57 io_wbs_adr_0[29]
*58 io_wbs_adr_0[2]
*59 io_wbs_adr_0[30]
*60 io_wbs_adr_0[31]
*61 io_wbs_adr_0[3]
*62 io_wbs_adr_0[4]
*63 io_wbs_adr_0[5]
*64 io_wbs_adr_0[6]
*65 io_wbs_adr_0[7]
*66 io_wbs_adr_0[8]
*67 io_wbs_adr_0[9]
*68 io_wbs_adr_1[0]
*69 io_wbs_adr_1[10]
*70 io_wbs_adr_1[11]
*71 io_wbs_adr_1[12]
*72 io_wbs_adr_1[13]
*73 io_wbs_adr_1[14]
*74 io_wbs_adr_1[15]
*75 io_wbs_adr_1[16]
*76 io_wbs_adr_1[17]
*77 io_wbs_adr_1[18]
*78 io_wbs_adr_1[19]
*79 io_wbs_adr_1[1]
*80 io_wbs_adr_1[20]
*81 io_wbs_adr_1[21]
*82 io_wbs_adr_1[22]
*83 io_wbs_adr_1[23]
*84 io_wbs_adr_1[24]
*85 io_wbs_adr_1[25]
*86 io_wbs_adr_1[26]
*87 io_wbs_adr_1[27]
*88 io_wbs_adr_1[28]
*89 io_wbs_adr_1[29]
*90 io_wbs_adr_1[2]
*91 io_wbs_adr_1[30]
*92 io_wbs_adr_1[31]
*93 io_wbs_adr_1[3]
*94 io_wbs_adr_1[4]
*95 io_wbs_adr_1[5]
*96 io_wbs_adr_1[6]
*97 io_wbs_adr_1[7]
*98 io_wbs_adr_1[8]
*99 io_wbs_adr_1[9]
*100 io_wbs_cyc
*101 io_wbs_cyc_0
*102 io_wbs_cyc_1
*103 io_wbs_datrd[0]
*104 io_wbs_datrd[10]
*105 io_wbs_datrd[11]
*106 io_wbs_datrd[12]
*107 io_wbs_datrd[13]
*108 io_wbs_datrd[14]
*109 io_wbs_datrd[15]
*110 io_wbs_datrd[16]
*111 io_wbs_datrd[17]
*112 io_wbs_datrd[18]
*113 io_wbs_datrd[19]
*114 io_wbs_datrd[1]
*115 io_wbs_datrd[20]
*116 io_wbs_datrd[21]
*117 io_wbs_datrd[22]
*118 io_wbs_datrd[23]
*119 io_wbs_datrd[24]
*120 io_wbs_datrd[25]
*121 io_wbs_datrd[26]
*122 io_wbs_datrd[27]
*123 io_wbs_datrd[28]
*124 io_wbs_datrd[29]
*125 io_wbs_datrd[2]
*126 io_wbs_datrd[30]
*127 io_wbs_datrd[31]
*128 io_wbs_datrd[3]
*129 io_wbs_datrd[4]
*130 io_wbs_datrd[5]
*131 io_wbs_datrd[6]
*132 io_wbs_datrd[7]
*133 io_wbs_datrd[8]
*134 io_wbs_datrd[9]
*135 io_wbs_datrd_0[0]
*136 io_wbs_datrd_0[10]
*137 io_wbs_datrd_0[11]
*138 io_wbs_datrd_0[12]
*139 io_wbs_datrd_0[13]
*140 io_wbs_datrd_0[14]
*141 io_wbs_datrd_0[15]
*142 io_wbs_datrd_0[16]
*143 io_wbs_datrd_0[17]
*144 io_wbs_datrd_0[18]
*145 io_wbs_datrd_0[19]
*146 io_wbs_datrd_0[1]
*147 io_wbs_datrd_0[20]
*148 io_wbs_datrd_0[21]
*149 io_wbs_datrd_0[22]
*150 io_wbs_datrd_0[23]
*151 io_wbs_datrd_0[24]
*152 io_wbs_datrd_0[25]
*153 io_wbs_datrd_0[26]
*154 io_wbs_datrd_0[27]
*155 io_wbs_datrd_0[28]
*156 io_wbs_datrd_0[29]
*157 io_wbs_datrd_0[2]
*158 io_wbs_datrd_0[30]
*159 io_wbs_datrd_0[31]
*160 io_wbs_datrd_0[3]
*161 io_wbs_datrd_0[4]
*162 io_wbs_datrd_0[5]
*163 io_wbs_datrd_0[6]
*164 io_wbs_datrd_0[7]
*165 io_wbs_datrd_0[8]
*166 io_wbs_datrd_0[9]
*167 io_wbs_datrd_1[0]
*168 io_wbs_datrd_1[10]
*169 io_wbs_datrd_1[11]
*170 io_wbs_datrd_1[12]
*171 io_wbs_datrd_1[13]
*172 io_wbs_datrd_1[14]
*173 io_wbs_datrd_1[15]
*174 io_wbs_datrd_1[16]
*175 io_wbs_datrd_1[17]
*176 io_wbs_datrd_1[18]
*177 io_wbs_datrd_1[19]
*178 io_wbs_datrd_1[1]
*179 io_wbs_datrd_1[20]
*180 io_wbs_datrd_1[21]
*181 io_wbs_datrd_1[22]
*182 io_wbs_datrd_1[23]
*183 io_wbs_datrd_1[24]
*184 io_wbs_datrd_1[25]
*185 io_wbs_datrd_1[26]
*186 io_wbs_datrd_1[27]
*187 io_wbs_datrd_1[28]
*188 io_wbs_datrd_1[29]
*189 io_wbs_datrd_1[2]
*190 io_wbs_datrd_1[30]
*191 io_wbs_datrd_1[31]
*192 io_wbs_datrd_1[3]
*193 io_wbs_datrd_1[4]
*194 io_wbs_datrd_1[5]
*195 io_wbs_datrd_1[6]
*196 io_wbs_datrd_1[7]
*197 io_wbs_datrd_1[8]
*198 io_wbs_datrd_1[9]
*199 io_wbs_datwr[0]
*200 io_wbs_datwr[10]
*201 io_wbs_datwr[11]
*202 io_wbs_datwr[12]
*203 io_wbs_datwr[13]
*204 io_wbs_datwr[14]
*205 io_wbs_datwr[15]
*206 io_wbs_datwr[16]
*207 io_wbs_datwr[17]
*208 io_wbs_datwr[18]
*209 io_wbs_datwr[19]
*210 io_wbs_datwr[1]
*211 io_wbs_datwr[20]
*212 io_wbs_datwr[21]
*213 io_wbs_datwr[22]
*214 io_wbs_datwr[23]
*215 io_wbs_datwr[24]
*216 io_wbs_datwr[25]
*217 io_wbs_datwr[26]
*218 io_wbs_datwr[27]
*219 io_wbs_datwr[28]
*220 io_wbs_datwr[29]
*221 io_wbs_datwr[2]
*222 io_wbs_datwr[30]
*223 io_wbs_datwr[31]
*224 io_wbs_datwr[3]
*225 io_wbs_datwr[4]
*226 io_wbs_datwr[5]
*227 io_wbs_datwr[6]
*228 io_wbs_datwr[7]
*229 io_wbs_datwr[8]
*230 io_wbs_datwr[9]
*231 io_wbs_datwr_0[0]
*232 io_wbs_datwr_0[10]
*233 io_wbs_datwr_0[11]
*234 io_wbs_datwr_0[12]
*235 io_wbs_datwr_0[13]
*236 io_wbs_datwr_0[14]
*237 io_wbs_datwr_0[15]
*238 io_wbs_datwr_0[16]
*239 io_wbs_datwr_0[17]
*240 io_wbs_datwr_0[18]
*241 io_wbs_datwr_0[19]
*242 io_wbs_datwr_0[1]
*243 io_wbs_datwr_0[20]
*244 io_wbs_datwr_0[21]
*245 io_wbs_datwr_0[22]
*246 io_wbs_datwr_0[23]
*247 io_wbs_datwr_0[24]
*248 io_wbs_datwr_0[25]
*249 io_wbs_datwr_0[26]
*250 io_wbs_datwr_0[27]
*251 io_wbs_datwr_0[28]
*252 io_wbs_datwr_0[29]
*253 io_wbs_datwr_0[2]
*254 io_wbs_datwr_0[30]
*255 io_wbs_datwr_0[31]
*256 io_wbs_datwr_0[3]
*257 io_wbs_datwr_0[4]
*258 io_wbs_datwr_0[5]
*259 io_wbs_datwr_0[6]
*260 io_wbs_datwr_0[7]
*261 io_wbs_datwr_0[8]
*262 io_wbs_datwr_0[9]
*263 io_wbs_datwr_1[0]
*264 io_wbs_datwr_1[10]
*265 io_wbs_datwr_1[11]
*266 io_wbs_datwr_1[12]
*267 io_wbs_datwr_1[13]
*268 io_wbs_datwr_1[14]
*269 io_wbs_datwr_1[15]
*270 io_wbs_datwr_1[16]
*271 io_wbs_datwr_1[17]
*272 io_wbs_datwr_1[18]
*273 io_wbs_datwr_1[19]
*274 io_wbs_datwr_1[1]
*275 io_wbs_datwr_1[20]
*276 io_wbs_datwr_1[21]
*277 io_wbs_datwr_1[22]
*278 io_wbs_datwr_1[23]
*279 io_wbs_datwr_1[24]
*280 io_wbs_datwr_1[25]
*281 io_wbs_datwr_1[26]
*282 io_wbs_datwr_1[27]
*283 io_wbs_datwr_1[28]
*284 io_wbs_datwr_1[29]
*285 io_wbs_datwr_1[2]
*286 io_wbs_datwr_1[30]
*287 io_wbs_datwr_1[31]
*288 io_wbs_datwr_1[3]
*289 io_wbs_datwr_1[4]
*290 io_wbs_datwr_1[5]
*291 io_wbs_datwr_1[6]
*292 io_wbs_datwr_1[7]
*293 io_wbs_datwr_1[8]
*294 io_wbs_datwr_1[9]
*295 io_wbs_stb
*296 io_wbs_stb_0
*297 io_wbs_stb_1
*298 io_wbs_we
*299 io_wbs_we_0
*300 io_wbs_we_1
*303 _000_
*304 _001_
*305 _002_
*306 _003_
*307 _004_
*308 _005_
*309 _006_
*310 _007_
*311 _008_
*312 _009_
*313 _010_
*314 _011_
*315 _012_
*316 _013_
*317 _014_
*318 _015_
*319 _016_
*320 _017_
*321 _018_
*322 _019_
*323 _020_
*324 _021_
*325 _022_
*326 _023_
*327 _024_
*328 _025_
*329 _026_
*330 _027_
*331 _028_
*332 net1
*333 net10
*334 net100
*335 net101
*336 net102
*337 net103
*338 net104
*339 net105
*340 net106
*341 net107
*342 net108
*343 net109
*344 net11
*345 net110
*346 net111
*347 net112
*348 net113
*349 net114
*350 net115
*351 net116
*352 net117
*353 net118
*354 net119
*355 net12
*356 net120
*357 net121
*358 net122
*359 net123
*360 net124
*361 net125
*362 net126
*363 net127
*364 net128
*365 net129
*366 net13
*367 net130
*368 net131
*369 net132
*370 net133
*371 net134
*372 net135
*373 net136
*374 net137
*375 net138
*376 net139
*377 net14
*378 net140
*379 net141
*380 net142
*381 net143
*382 net144
*383 net145
*384 net146
*385 net147
*386 net148
*387 net149
*388 net15
*389 net150
*390 net151
*391 net152
*392 net153
*393 net154
*394 net155
*395 net156
*396 net157
*397 net158
*398 net159
*399 net16
*400 net160
*401 net161
*402 net162
*403 net163
*404 net164
*405 net165
*406 net166
*407 net167
*408 net168
*409 net169
*410 net17
*411 net170
*412 net171
*413 net172
*414 net173
*415 net174
*416 net175
*417 net176
*418 net177
*419 net178
*420 net179
*421 net18
*422 net180
*423 net181
*424 net182
*425 net183
*426 net184
*427 net185
*428 net186
*429 net187
*430 net188
*431 net189
*432 net19
*433 net190
*434 net191
*435 net192
*436 net193
*437 net194
*438 net195
*439 net196
*440 net197
*441 net198
*442 net199
*443 net2
*444 net20
*445 net200
*446 net201
*447 net202
*448 net203
*449 net204
*450 net205
*451 net206
*452 net207
*453 net208
*454 net209
*455 net21
*456 net210
*457 net211
*458 net212
*459 net213
*460 net214
*461 net215
*462 net216
*463 net217
*464 net218
*465 net219
*466 net22
*467 net220
*468 net221
*469 net222
*470 net223
*471 net224
*472 net225
*473 net226
*474 net227
*475 net228
*476 net229
*477 net23
*478 net230
*479 net231
*480 net232
*481 net233
*482 net234
*483 net235
*484 net236
*485 net237
*486 net238
*487 net239
*488 net24
*489 net240
*490 net241
*491 net242
*492 net243
*493 net244
*494 net245
*495 net246
*496 net247
*497 net248
*498 net249
*499 net25
*500 net250
*501 net251
*502 net252
*503 net253
*504 net254
*505 net255
*506 net256
*507 net257
*508 net258
*509 net259
*510 net26
*511 net260
*512 net261
*513 net262
*514 net263
*515 net264
*516 net265
*517 net266
*518 net267
*519 net268
*520 net269
*521 net27
*522 net270
*523 net271
*524 net272
*525 net273
*526 net274
*527 net275
*528 net276
*529 net277
*530 net278
*531 net279
*532 net28
*533 net280
*534 net281
*535 net282
*536 net283
*537 net284
*538 net285
*539 net286
*540 net287
*541 net288
*542 net289
*543 net29
*544 net290
*545 net291
*546 net292
*547 net293
*548 net294
*549 net295
*550 net296
*551 net297
*552 net298
*553 net299
*554 net3
*555 net30
*556 net300
*557 net31
*558 net32
*559 net33
*560 net34
*561 net35
*562 net36
*563 net37
*564 net38
*565 net39
*566 net4
*567 net40
*568 net41
*569 net42
*570 net43
*571 net44
*572 net45
*573 net46
*574 net47
*575 net48
*576 net49
*577 net5
*578 net50
*579 net51
*580 net52
*581 net53
*582 net54
*583 net55
*584 net56
*585 net57
*586 net58
*587 net59
*588 net6
*589 net60
*590 net61
*591 net62
*592 net63
*593 net64
*594 net65
*595 net66
*596 net67
*597 net68
*598 net69
*599 net7
*600 net70
*601 net71
*602 net72
*603 net73
*604 net74
*605 net75
*606 net76
*607 net77
*608 net78
*609 net79
*610 net8
*611 net80
*612 net81
*613 net82
*614 net83
*615 net84
*616 net85
*617 net86
*618 net87
*619 net88
*620 net89
*621 net9
*622 net90
*623 net91
*624 net92
*625 net93
*626 net94
*627 net95
*628 net96
*629 net97
*630 net98
*631 net99
*632 ANTENNA__029__A
*633 ANTENNA__029__B
*634 ANTENNA__029__C
*635 ANTENNA__029__D
*636 ANTENNA__030__A
*637 ANTENNA__030__B
*638 ANTENNA__030__C_N
*639 ANTENNA__030__D_N
*640 ANTENNA__032__A
*641 ANTENNA__032__B
*642 ANTENNA__032__C
*643 ANTENNA__033__A
*644 ANTENNA__033__B
*645 ANTENNA__033__C
*646 ANTENNA__033__D
*647 ANTENNA__034__A
*648 ANTENNA__034__B
*649 ANTENNA__034__C
*650 ANTENNA__034__D
*651 ANTENNA__036__A_N
*652 ANTENNA__036__C
*653 ANTENNA__037__A
*654 ANTENNA__039__A
*655 ANTENNA__039__C
*656 ANTENNA__040__A
*657 ANTENNA__042__A1
*658 ANTENNA__042__B2
*659 ANTENNA__043__A1
*660 ANTENNA__043__B2
*661 ANTENNA__044__A1
*662 ANTENNA__044__B2
*663 ANTENNA__045__A1
*664 ANTENNA__045__B2
*665 ANTENNA__046__A1
*666 ANTENNA__046__B2
*667 ANTENNA__049__A1
*668 ANTENNA__049__B2
*669 ANTENNA__050__A1
*670 ANTENNA__050__B2
*671 ANTENNA__051__A1
*672 ANTENNA__051__B2
*673 ANTENNA__052__A1
*674 ANTENNA__052__B2
*675 ANTENNA__053__A1
*676 ANTENNA__053__B2
*677 ANTENNA__056__A1
*678 ANTENNA__056__B2
*679 ANTENNA__057__B2
*680 ANTENNA__058__B2
*681 ANTENNA__059__A1
*682 ANTENNA__059__B2
*683 ANTENNA__060__A1
*684 ANTENNA__060__B2
*685 ANTENNA__063__B2
*686 ANTENNA__064__B2
*687 ANTENNA__065__B2
*688 ANTENNA__066__A1
*689 ANTENNA__066__B2
*690 ANTENNA__067__A1
*691 ANTENNA__067__B2
*692 ANTENNA__070__B2
*693 ANTENNA__071__A1
*694 ANTENNA__071__B2
*695 ANTENNA__072__A1
*696 ANTENNA__072__B2
*697 ANTENNA__073__A1
*698 ANTENNA__073__B2
*699 ANTENNA__074__A1
*700 ANTENNA__074__B2
*701 ANTENNA__075__A
*702 ANTENNA__076__A
*703 ANTENNA__077__B2
*704 ANTENNA__078__B2
*705 ANTENNA__079__A1
*706 ANTENNA__079__B2
*707 ANTENNA__080__A1
*708 ANTENNA__080__B2
*709 ANTENNA__081__A1
*710 ANTENNA__081__B2
*711 ANTENNA__082__A
*712 ANTENNA__083__A
*713 ANTENNA__084__A1
*714 ANTENNA__084__B2
*715 ANTENNA__085__A1
*716 ANTENNA__085__B2
*717 ANTENNA__086__A1
*718 ANTENNA__086__B2
*719 ANTENNA__087__A
*720 ANTENNA__089__A
*721 ANTENNA__091__A
*722 ANTENNA__093__A
*723 ANTENNA__107__A
*724 ANTENNA__108__A
*725 ANTENNA__109__A
*726 ANTENNA__110__A
*727 ANTENNA__111__A
*728 ANTENNA__112__A
*729 ANTENNA__113__A
*730 ANTENNA__114__A
*731 ANTENNA__115__A
*732 ANTENNA__116__A
*733 ANTENNA__117__A
*734 ANTENNA__118__A
*735 ANTENNA__119__A
*736 ANTENNA__120__A
*737 ANTENNA__121__A
*738 ANTENNA__122__A
*739 ANTENNA__123__A
*740 ANTENNA__124__A
*741 ANTENNA__125__A
*742 ANTENNA__126__A
*743 ANTENNA__139__A
*744 ANTENNA__140__A
*745 ANTENNA__141__A
*746 ANTENNA__142__A
*747 ANTENNA__143__A
*748 ANTENNA__144__A
*749 ANTENNA__145__A
*750 ANTENNA__146__A
*751 ANTENNA__147__A
*752 ANTENNA__148__A
*753 ANTENNA__149__A
*754 ANTENNA__150__A
*755 ANTENNA__151__A
*756 ANTENNA__152__A
*757 ANTENNA__153__A
*758 ANTENNA__154__A
*759 ANTENNA__155__A
*760 ANTENNA__156__A
*761 ANTENNA__157__A
*762 ANTENNA__158__A
*763 ANTENNA__159__A
*764 ANTENNA__160__A
*765 ANTENNA__161__A
*766 ANTENNA__162__A
*767 ANTENNA__163__A
*768 ANTENNA__164__A
*769 ANTENNA__165__A
*770 ANTENNA__166__A
*771 ANTENNA__167__A
*772 ANTENNA__168__A
*773 ANTENNA__169__A
*774 ANTENNA__170__A
*775 ANTENNA__171__A
*776 ANTENNA__172__A
*777 ANTENNA__173__A
*778 ANTENNA__174__A
*779 ANTENNA__175__A
*780 ANTENNA__176__A
*781 ANTENNA__177__A
*782 ANTENNA__178__A
*783 ANTENNA__179__A
*784 ANTENNA__180__A
*785 ANTENNA__181__A
*786 ANTENNA__182__A
*787 ANTENNA__183__A
*788 ANTENNA__184__A
*789 ANTENNA__185__A
*790 ANTENNA__186__A
*791 ANTENNA__187__A
*792 ANTENNA__188__A
*793 ANTENNA__189__A
*794 ANTENNA__190__A
*795 ANTENNA__191__A
*796 ANTENNA__192__A
*797 ANTENNA__193__A
*798 ANTENNA__194__A
*799 ANTENNA__195__A
*800 ANTENNA__196__A
*801 ANTENNA__197__A
*802 ANTENNA__198__A
*803 ANTENNA__199__A
*804 ANTENNA__200__A
*805 ANTENNA__201__A
*806 ANTENNA__202__A
*807 ANTENNA__203__A
*808 ANTENNA__204__A
*809 ANTENNA__205__A
*810 ANTENNA__206__A
*811 ANTENNA__207__A
*812 ANTENNA__208__A
*813 ANTENNA__209__A
*814 ANTENNA__210__A
*815 ANTENNA__211__A
*816 ANTENNA__212__A
*817 ANTENNA__213__A
*818 ANTENNA__214__A
*819 ANTENNA__215__A
*820 ANTENNA__216__A
*821 ANTENNA__217__A
*822 ANTENNA__218__A
*823 ANTENNA__219__A
*824 ANTENNA__220__A
*825 ANTENNA__221__A
*826 ANTENNA__222__A
*827 ANTENNA__223__A
*828 ANTENNA__224__A
*829 ANTENNA_input100_A
*830 ANTENNA_input101_A
*831 ANTENNA_input102_A
*832 ANTENNA_input103_A
*833 ANTENNA_input104_A
*834 ANTENNA_input105_A
*835 ANTENNA_input106_A
*836 ANTENNA_input107_A
*837 ANTENNA_input108_A
*838 ANTENNA_input109_A
*839 ANTENNA_input10_A
*840 ANTENNA_input110_A
*841 ANTENNA_input111_A
*842 ANTENNA_input112_A
*843 ANTENNA_input113_A
*844 ANTENNA_input114_A
*845 ANTENNA_input115_A
*846 ANTENNA_input116_A
*847 ANTENNA_input117_A
*848 ANTENNA_input118_A
*849 ANTENNA_input119_A
*850 ANTENNA_input11_A
*851 ANTENNA_input120_A
*852 ANTENNA_input121_A
*853 ANTENNA_input122_A
*854 ANTENNA_input123_A
*855 ANTENNA_input124_A
*856 ANTENNA_input125_A
*857 ANTENNA_input126_A
*858 ANTENNA_input127_A
*859 ANTENNA_input128_A
*860 ANTENNA_input129_A
*861 ANTENNA_input12_A
*862 ANTENNA_input130_A
*863 ANTENNA_input131_A
*864 ANTENNA_input132_A
*865 ANTENNA_input133_A
*866 ANTENNA_input13_A
*867 ANTENNA_input14_A
*868 ANTENNA_input15_A
*869 ANTENNA_input16_A
*870 ANTENNA_input17_A
*871 ANTENNA_input18_A
*872 ANTENNA_input19_A
*873 ANTENNA_input1_A
*874 ANTENNA_input20_A
*875 ANTENNA_input21_A
*876 ANTENNA_input22_A
*877 ANTENNA_input23_A
*878 ANTENNA_input24_A
*879 ANTENNA_input25_A
*880 ANTENNA_input26_A
*881 ANTENNA_input27_A
*882 ANTENNA_input28_A
*883 ANTENNA_input29_A
*884 ANTENNA_input2_A
*885 ANTENNA_input30_A
*886 ANTENNA_input31_A
*887 ANTENNA_input32_A
*888 ANTENNA_input33_A
*889 ANTENNA_input34_A
*890 ANTENNA_input35_A
*891 ANTENNA_input36_A
*892 ANTENNA_input37_A
*893 ANTENNA_input38_A
*894 ANTENNA_input39_A
*895 ANTENNA_input3_A
*896 ANTENNA_input40_A
*897 ANTENNA_input41_A
*898 ANTENNA_input42_A
*899 ANTENNA_input43_A
*900 ANTENNA_input44_A
*901 ANTENNA_input45_A
*902 ANTENNA_input46_A
*903 ANTENNA_input47_A
*904 ANTENNA_input48_A
*905 ANTENNA_input49_A
*906 ANTENNA_input4_A
*907 ANTENNA_input50_A
*908 ANTENNA_input51_A
*909 ANTENNA_input52_A
*910 ANTENNA_input53_A
*911 ANTENNA_input54_A
*912 ANTENNA_input55_A
*913 ANTENNA_input56_A
*914 ANTENNA_input57_A
*915 ANTENNA_input58_A
*916 ANTENNA_input59_A
*917 ANTENNA_input5_A
*918 ANTENNA_input60_A
*919 ANTENNA_input61_A
*920 ANTENNA_input62_A
*921 ANTENNA_input63_A
*922 ANTENNA_input64_A
*923 ANTENNA_input65_A
*924 ANTENNA_input66_A
*925 ANTENNA_input67_A
*926 ANTENNA_input68_A
*927 ANTENNA_input69_A
*928 ANTENNA_input6_A
*929 ANTENNA_input70_A
*930 ANTENNA_input71_A
*931 ANTENNA_input72_A
*932 ANTENNA_input73_A
*933 ANTENNA_input74_A
*934 ANTENNA_input75_A
*935 ANTENNA_input76_A
*936 ANTENNA_input77_A
*937 ANTENNA_input78_A
*938 ANTENNA_input79_A
*939 ANTENNA_input7_A
*940 ANTENNA_input80_A
*941 ANTENNA_input81_A
*942 ANTENNA_input82_A
*943 ANTENNA_input83_A
*944 ANTENNA_input84_A
*945 ANTENNA_input85_A
*946 ANTENNA_input86_A
*947 ANTENNA_input87_A
*948 ANTENNA_input88_A
*949 ANTENNA_input89_A
*950 ANTENNA_input8_A
*951 ANTENNA_input90_A
*952 ANTENNA_input91_A
*953 ANTENNA_input92_A
*954 ANTENNA_input93_A
*955 ANTENNA_input94_A
*956 ANTENNA_input95_A
*957 ANTENNA_input96_A
*958 ANTENNA_input97_A
*959 ANTENNA_input98_A
*960 ANTENNA_input99_A
*961 ANTENNA_input9_A
*962 ANTENNA_output134_A
*963 ANTENNA_output135_A
*964 ANTENNA_output136_A
*965 ANTENNA_output137_A
*966 ANTENNA_output138_A
*967 ANTENNA_output139_A
*968 ANTENNA_output140_A
*969 ANTENNA_output141_A
*970 ANTENNA_output142_A
*971 ANTENNA_output143_A
*972 ANTENNA_output144_A
*973 ANTENNA_output145_A
*974 ANTENNA_output146_A
*975 ANTENNA_output147_A
*976 ANTENNA_output148_A
*977 ANTENNA_output149_A
*978 ANTENNA_output150_A
*979 ANTENNA_output151_A
*980 ANTENNA_output152_A
*981 ANTENNA_output153_A
*982 ANTENNA_output154_A
*983 ANTENNA_output155_A
*984 ANTENNA_output156_A
*985 ANTENNA_output157_A
*986 ANTENNA_output158_A
*987 ANTENNA_output159_A
*988 ANTENNA_output160_A
*989 ANTENNA_output161_A
*990 ANTENNA_output162_A
*991 ANTENNA_output163_A
*992 ANTENNA_output164_A
*993 ANTENNA_output165_A
*994 ANTENNA_output166_A
*995 ANTENNA_output184_A
*996 ANTENNA_output185_A
*997 ANTENNA_output186_A
*998 ANTENNA_output187_A
*999 ANTENNA_output188_A
*1000 ANTENNA_output190_A
*1001 ANTENNA_output191_A
*1002 ANTENNA_output199_A
*1003 ANTENNA_output200_A
*1004 ANTENNA_output201_A
*1005 ANTENNA_output202_A
*1006 ANTENNA_output203_A
*1007 ANTENNA_output204_A
*1008 ANTENNA_output205_A
*1009 ANTENNA_output206_A
*1010 ANTENNA_output207_A
*1011 ANTENNA_output208_A
*1012 ANTENNA_output209_A
*1013 ANTENNA_output210_A
*1014 ANTENNA_output211_A
*1015 ANTENNA_output212_A
*1016 ANTENNA_output213_A
*1017 ANTENNA_output214_A
*1018 ANTENNA_output215_A
*1019 ANTENNA_output216_A
*1020 ANTENNA_output217_A
*1021 ANTENNA_output218_A
*1022 ANTENNA_output219_A
*1023 ANTENNA_output220_A
*1024 ANTENNA_output221_A
*1025 ANTENNA_output222_A
*1026 ANTENNA_output223_A
*1027 ANTENNA_output224_A
*1028 ANTENNA_output225_A
*1029 ANTENNA_output226_A
*1030 ANTENNA_output227_A
*1031 ANTENNA_output228_A
*1032 ANTENNA_output229_A
*1033 ANTENNA_output230_A
*1034 ANTENNA_output231_A
*1035 ANTENNA_output232_A
*1036 ANTENNA_output233_A
*1037 ANTENNA_output234_A
*1038 ANTENNA_output235_A
*1039 ANTENNA_output236_A
*1040 ANTENNA_output237_A
*1041 ANTENNA_output238_A
*1042 ANTENNA_output239_A
*1043 ANTENNA_output240_A
*1044 ANTENNA_output241_A
*1045 ANTENNA_output242_A
*1046 ANTENNA_output243_A
*1047 ANTENNA_output244_A
*1048 ANTENNA_output245_A
*1049 ANTENNA_output246_A
*1050 ANTENNA_output247_A
*1051 ANTENNA_output248_A
*1052 ANTENNA_output249_A
*1053 ANTENNA_output250_A
*1054 ANTENNA_output251_A
*1055 ANTENNA_output252_A
*1056 ANTENNA_output253_A
*1057 ANTENNA_output254_A
*1058 ANTENNA_output255_A
*1059 ANTENNA_output256_A
*1060 ANTENNA_output257_A
*1061 ANTENNA_output258_A
*1062 ANTENNA_output259_A
*1063 ANTENNA_output260_A
*1064 ANTENNA_output261_A
*1065 ANTENNA_output262_A
*1066 ANTENNA_output263_A
*1067 ANTENNA_output264_A
*1068 ANTENNA_output265_A
*1069 ANTENNA_output266_A
*1070 ANTENNA_output267_A
*1071 ANTENNA_output268_A
*1072 ANTENNA_output269_A
*1073 ANTENNA_output270_A
*1074 ANTENNA_output271_A
*1075 ANTENNA_output272_A
*1076 ANTENNA_output273_A
*1077 ANTENNA_output274_A
*1078 ANTENNA_output275_A
*1079 ANTENNA_output276_A
*1080 ANTENNA_output277_A
*1081 ANTENNA_output278_A
*1082 ANTENNA_output279_A
*1083 ANTENNA_output280_A
*1084 ANTENNA_output281_A
*1085 ANTENNA_output282_A
*1086 ANTENNA_output283_A
*1087 ANTENNA_output284_A
*1088 ANTENNA_output285_A
*1089 ANTENNA_output286_A
*1090 ANTENNA_output287_A
*1091 ANTENNA_output288_A
*1092 ANTENNA_output289_A
*1093 ANTENNA_output290_A
*1094 ANTENNA_output291_A
*1095 ANTENNA_output292_A
*1096 ANTENNA_output293_A
*1097 ANTENNA_output294_A
*1098 ANTENNA_output295_A
*1099 ANTENNA_output296_A
*1100 ANTENNA_output297_A
*1101 ANTENNA_output298_A
*1102 ANTENNA_output300_A
*1103 FILLER_0_103
*1104 FILLER_0_111
*1105 FILLER_0_117
*1106 FILLER_0_125
*1107 FILLER_0_133
*1108 FILLER_0_139
*1109 FILLER_0_145
*1110 FILLER_0_15
*1111 FILLER_0_153
*1112 FILLER_0_161
*1113 FILLER_0_167
*1114 FILLER_0_173
*1115 FILLER_0_181
*1116 FILLER_0_189
*1117 FILLER_0_195
*1118 FILLER_0_201
*1119 FILLER_0_209
*1120 FILLER_0_217
*1121 FILLER_0_22
*1122 FILLER_0_223
*1123 FILLER_0_229
*1124 FILLER_0_237
*1125 FILLER_0_245
*1126 FILLER_0_251
*1127 FILLER_0_257
*1128 FILLER_0_265
*1129 FILLER_0_273
*1130 FILLER_0_279
*1131 FILLER_0_285
*1132 FILLER_0_293
*1133 FILLER_0_301
*1134 FILLER_0_307
*1135 FILLER_0_313
*1136 FILLER_0_32
*1137 FILLER_0_321
*1138 FILLER_0_329
*1139 FILLER_0_335
*1140 FILLER_0_341
*1141 FILLER_0_349
*1142 FILLER_0_357
*1143 FILLER_0_363
*1144 FILLER_0_369
*1145 FILLER_0_377
*1146 FILLER_0_385
*1147 FILLER_0_39
*1148 FILLER_0_391
*1149 FILLER_0_397
*1150 FILLER_0_405
*1151 FILLER_0_413
*1152 FILLER_0_419
*1153 FILLER_0_425
*1154 FILLER_0_433
*1155 FILLER_0_441
*1156 FILLER_0_447
*1157 FILLER_0_453
*1158 FILLER_0_46
*1159 FILLER_0_461
*1160 FILLER_0_469
*1161 FILLER_0_475
*1162 FILLER_0_477
*1163 FILLER_0_486
*1164 FILLER_0_496
*1165 FILLER_0_511
*1166 FILLER_0_52
*1167 FILLER_0_521
*1168 FILLER_0_527
*1169 FILLER_0_531
*1170 FILLER_0_539
*1171 FILLER_0_549
*1172 FILLER_0_557
*1173 FILLER_0_565
*1174 FILLER_0_573
*1175 FILLER_0_581
*1176 FILLER_0_587
*1177 FILLER_0_59
*1178 FILLER_0_593
*1179 FILLER_0_601
*1180 FILLER_0_609
*1181 FILLER_0_615
*1182 FILLER_0_621
*1183 FILLER_0_629
*1184 FILLER_0_635
*1185 FILLER_0_640
*1186 FILLER_0_649
*1187 FILLER_0_653
*1188 FILLER_0_658
*1189 FILLER_0_666
*1190 FILLER_0_677
*1191 FILLER_0_685
*1192 FILLER_0_69
*1193 FILLER_0_693
*1194 FILLER_0_699
*1195 FILLER_0_7
*1196 FILLER_0_705
*1197 FILLER_0_713
*1198 FILLER_0_721
*1199 FILLER_0_727
*1200 FILLER_0_733
*1201 FILLER_0_741
*1202 FILLER_0_749
*1203 FILLER_0_755
*1204 FILLER_0_76
*1205 FILLER_0_761
*1206 FILLER_0_769
*1207 FILLER_0_777
*1208 FILLER_0_783
*1209 FILLER_0_789
*1210 FILLER_0_797
*1211 FILLER_0_805
*1212 FILLER_0_811
*1213 FILLER_0_813
*1214 FILLER_0_816
*1215 FILLER_0_826
*1216 FILLER_0_836
*1217 FILLER_0_841
*1218 FILLER_0_88
*1219 FILLER_0_96
*1220 FILLER_100_109
*1221 FILLER_100_121
*1222 FILLER_100_133
*1223 FILLER_100_139
*1224 FILLER_100_141
*1225 FILLER_100_153
*1226 FILLER_100_165
*1227 FILLER_100_17
*1228 FILLER_100_177
*1229 FILLER_100_189
*1230 FILLER_100_195
*1231 FILLER_100_197
*1232 FILLER_100_209
*1233 FILLER_100_221
*1234 FILLER_100_233
*1235 FILLER_100_245
*1236 FILLER_100_25
*1237 FILLER_100_251
*1238 FILLER_100_253
*1239 FILLER_100_265
*1240 FILLER_100_277
*1241 FILLER_100_289
*1242 FILLER_100_29
*1243 FILLER_100_301
*1244 FILLER_100_307
*1245 FILLER_100_309
*1246 FILLER_100_321
*1247 FILLER_100_333
*1248 FILLER_100_345
*1249 FILLER_100_357
*1250 FILLER_100_363
*1251 FILLER_100_365
*1252 FILLER_100_377
*1253 FILLER_100_389
*1254 FILLER_100_401
*1255 FILLER_100_41
*1256 FILLER_100_413
*1257 FILLER_100_419
*1258 FILLER_100_421
*1259 FILLER_100_433
*1260 FILLER_100_445
*1261 FILLER_100_457
*1262 FILLER_100_469
*1263 FILLER_100_475
*1264 FILLER_100_477
*1265 FILLER_100_489
*1266 FILLER_100_5
*1267 FILLER_100_501
*1268 FILLER_100_513
*1269 FILLER_100_525
*1270 FILLER_100_53
*1271 FILLER_100_531
*1272 FILLER_100_533
*1273 FILLER_100_545
*1274 FILLER_100_557
*1275 FILLER_100_569
*1276 FILLER_100_581
*1277 FILLER_100_587
*1278 FILLER_100_589
*1279 FILLER_100_601
*1280 FILLER_100_613
*1281 FILLER_100_625
*1282 FILLER_100_637
*1283 FILLER_100_643
*1284 FILLER_100_645
*1285 FILLER_100_65
*1286 FILLER_100_657
*1287 FILLER_100_669
*1288 FILLER_100_681
*1289 FILLER_100_693
*1290 FILLER_100_699
*1291 FILLER_100_701
*1292 FILLER_100_713
*1293 FILLER_100_725
*1294 FILLER_100_737
*1295 FILLER_100_749
*1296 FILLER_100_755
*1297 FILLER_100_757
*1298 FILLER_100_769
*1299 FILLER_100_77
*1300 FILLER_100_781
*1301 FILLER_100_793
*1302 FILLER_100_805
*1303 FILLER_100_811
*1304 FILLER_100_813
*1305 FILLER_100_825
*1306 FILLER_100_83
*1307 FILLER_100_833
*1308 FILLER_100_838
*1309 FILLER_100_85
*1310 FILLER_100_97
*1311 FILLER_101_105
*1312 FILLER_101_111
*1313 FILLER_101_113
*1314 FILLER_101_125
*1315 FILLER_101_137
*1316 FILLER_101_149
*1317 FILLER_101_15
*1318 FILLER_101_161
*1319 FILLER_101_167
*1320 FILLER_101_169
*1321 FILLER_101_181
*1322 FILLER_101_193
*1323 FILLER_101_205
*1324 FILLER_101_217
*1325 FILLER_101_223
*1326 FILLER_101_225
*1327 FILLER_101_237
*1328 FILLER_101_249
*1329 FILLER_101_261
*1330 FILLER_101_27
*1331 FILLER_101_273
*1332 FILLER_101_279
*1333 FILLER_101_281
*1334 FILLER_101_293
*1335 FILLER_101_305
*1336 FILLER_101_317
*1337 FILLER_101_329
*1338 FILLER_101_335
*1339 FILLER_101_337
*1340 FILLER_101_349
*1341 FILLER_101_361
*1342 FILLER_101_373
*1343 FILLER_101_385
*1344 FILLER_101_39
*1345 FILLER_101_391
*1346 FILLER_101_393
*1347 FILLER_101_405
*1348 FILLER_101_417
*1349 FILLER_101_429
*1350 FILLER_101_441
*1351 FILLER_101_447
*1352 FILLER_101_449
*1353 FILLER_101_461
*1354 FILLER_101_473
*1355 FILLER_101_485
*1356 FILLER_101_497
*1357 FILLER_101_503
*1358 FILLER_101_505
*1359 FILLER_101_51
*1360 FILLER_101_517
*1361 FILLER_101_529
*1362 FILLER_101_541
*1363 FILLER_101_55
*1364 FILLER_101_553
*1365 FILLER_101_559
*1366 FILLER_101_561
*1367 FILLER_101_57
*1368 FILLER_101_573
*1369 FILLER_101_585
*1370 FILLER_101_597
*1371 FILLER_101_609
*1372 FILLER_101_615
*1373 FILLER_101_617
*1374 FILLER_101_629
*1375 FILLER_101_641
*1376 FILLER_101_649
*1377 FILLER_101_661
*1378 FILLER_101_669
*1379 FILLER_101_673
*1380 FILLER_101_685
*1381 FILLER_101_69
*1382 FILLER_101_697
*1383 FILLER_101_709
*1384 FILLER_101_721
*1385 FILLER_101_727
*1386 FILLER_101_729
*1387 FILLER_101_741
*1388 FILLER_101_753
*1389 FILLER_101_765
*1390 FILLER_101_777
*1391 FILLER_101_783
*1392 FILLER_101_785
*1393 FILLER_101_797
*1394 FILLER_101_809
*1395 FILLER_101_81
*1396 FILLER_101_821
*1397 FILLER_101_825
*1398 FILLER_101_828
*1399 FILLER_101_836
*1400 FILLER_101_841
*1401 FILLER_101_9
*1402 FILLER_101_93
*1403 FILLER_102_109
*1404 FILLER_102_121
*1405 FILLER_102_133
*1406 FILLER_102_139
*1407 FILLER_102_141
*1408 FILLER_102_153
*1409 FILLER_102_165
*1410 FILLER_102_177
*1411 FILLER_102_189
*1412 FILLER_102_195
*1413 FILLER_102_197
*1414 FILLER_102_209
*1415 FILLER_102_21
*1416 FILLER_102_221
*1417 FILLER_102_233
*1418 FILLER_102_245
*1419 FILLER_102_251
*1420 FILLER_102_253
*1421 FILLER_102_265
*1422 FILLER_102_27
*1423 FILLER_102_277
*1424 FILLER_102_289
*1425 FILLER_102_29
*1426 FILLER_102_301
*1427 FILLER_102_307
*1428 FILLER_102_309
*1429 FILLER_102_321
*1430 FILLER_102_333
*1431 FILLER_102_345
*1432 FILLER_102_357
*1433 FILLER_102_363
*1434 FILLER_102_365
*1435 FILLER_102_377
*1436 FILLER_102_389
*1437 FILLER_102_401
*1438 FILLER_102_41
*1439 FILLER_102_413
*1440 FILLER_102_419
*1441 FILLER_102_421
*1442 FILLER_102_433
*1443 FILLER_102_445
*1444 FILLER_102_457
*1445 FILLER_102_469
*1446 FILLER_102_475
*1447 FILLER_102_477
*1448 FILLER_102_489
*1449 FILLER_102_501
*1450 FILLER_102_513
*1451 FILLER_102_525
*1452 FILLER_102_53
*1453 FILLER_102_531
*1454 FILLER_102_533
*1455 FILLER_102_545
*1456 FILLER_102_557
*1457 FILLER_102_569
*1458 FILLER_102_581
*1459 FILLER_102_587
*1460 FILLER_102_589
*1461 FILLER_102_601
*1462 FILLER_102_613
*1463 FILLER_102_625
*1464 FILLER_102_633
*1465 FILLER_102_639
*1466 FILLER_102_643
*1467 FILLER_102_649
*1468 FILLER_102_65
*1469 FILLER_102_655
*1470 FILLER_102_665
*1471 FILLER_102_677
*1472 FILLER_102_689
*1473 FILLER_102_697
*1474 FILLER_102_701
*1475 FILLER_102_713
*1476 FILLER_102_725
*1477 FILLER_102_737
*1478 FILLER_102_749
*1479 FILLER_102_755
*1480 FILLER_102_757
*1481 FILLER_102_769
*1482 FILLER_102_77
*1483 FILLER_102_781
*1484 FILLER_102_793
*1485 FILLER_102_805
*1486 FILLER_102_811
*1487 FILLER_102_813
*1488 FILLER_102_825
*1489 FILLER_102_83
*1490 FILLER_102_830
*1491 FILLER_102_838
*1492 FILLER_102_85
*1493 FILLER_102_9
*1494 FILLER_102_97
*1495 FILLER_103_105
*1496 FILLER_103_111
*1497 FILLER_103_113
*1498 FILLER_103_125
*1499 FILLER_103_137
*1500 FILLER_103_149
*1501 FILLER_103_161
*1502 FILLER_103_167
*1503 FILLER_103_169
*1504 FILLER_103_17
*1505 FILLER_103_181
*1506 FILLER_103_193
*1507 FILLER_103_205
*1508 FILLER_103_217
*1509 FILLER_103_223
*1510 FILLER_103_225
*1511 FILLER_103_237
*1512 FILLER_103_249
*1513 FILLER_103_261
*1514 FILLER_103_273
*1515 FILLER_103_279
*1516 FILLER_103_281
*1517 FILLER_103_29