*SPEF "ieee 1481-1999"
*DESIGN "wb_mux"
*DATE "11:11:11 Fri 11 11, 1111"
*VENDOR "OpenRCX"
*PROGRAM "Parallel Extraction"
*VERSION "1.0"
*DESIGN_FLOW "NAME_SCOPE LOCAL" "PIN_CAP NONE"
*DIVIDER /
*DELIMITER :
*BUS_DELIMITER []
*T_UNIT 1 NS
*C_UNIT 1 PF
*R_UNIT 1 OHM
*L_UNIT 1 HENRY

*NAME_MAP
*1 io_wbs_ack
*2 io_wbs_ack_0
*3 io_wbs_ack_1
*4 io_wbs_adr[0]
*5 io_wbs_adr[10]
*6 io_wbs_adr[11]
*7 io_wbs_adr[12]
*8 io_wbs_adr[13]
*9 io_wbs_adr[14]
*10 io_wbs_adr[15]
*11 io_wbs_adr[16]
*12 io_wbs_adr[17]
*13 io_wbs_adr[18]
*14 io_wbs_adr[19]
*15 io_wbs_adr[1]
*16 io_wbs_adr[20]
*17 io_wbs_adr[21]
*18 io_wbs_adr[22]
*19 io_wbs_adr[23]
*20 io_wbs_adr[24]
*21 io_wbs_adr[25]
*22 io_wbs_adr[26]
*23 io_wbs_adr[27]
*24 io_wbs_adr[28]
*25 io_wbs_adr[29]
*26 io_wbs_adr[2]
*27 io_wbs_adr[30]
*28 io_wbs_adr[31]
*29 io_wbs_adr[3]
*30 io_wbs_adr[4]
*31 io_wbs_adr[5]
*32 io_wbs_adr[6]
*33 io_wbs_adr[7]
*34 io_wbs_adr[8]
*35 io_wbs_adr[9]
*36 io_wbs_adr_0[0]
*37 io_wbs_adr_0[10]
*38 io_wbs_adr_0[11]
*39 io_wbs_adr_0[12]
*40 io_wbs_adr_0[13]
*41 io_wbs_adr_0[14]
*42 io_wbs_adr_0[15]
*43 io_wbs_adr_0[16]
*44 io_wbs_adr_0[17]
*45 io_wbs_adr_0[18]
*46 io_wbs_adr_0[19]
*47 io_wbs_adr_0[1]
*48 io_wbs_adr_0[20]
*49 io_wbs_adr_0[21]
*50 io_wbs_adr_0[22]
*51 io_wbs_adr_0[23]
*52 io_wbs_adr_0[24]
*53 io_wbs_adr_0[25]
*54 io_wbs_adr_0[26]
*55 io_wbs_adr_0[27]
*56 io_wbs_adr_0[28]
*57 io_wbs_adr_0[29]
*58 io_wbs_adr_0[2]
*59 io_wbs_adr_0[30]
*60 io_wbs_adr_0[31]
*61 io_wbs_adr_0[3]
*62 io_wbs_adr_0[4]
*63 io_wbs_adr_0[5]
*64 io_wbs_adr_0[6]
*65 io_wbs_adr_0[7]
*66 io_wbs_adr_0[8]
*67 io_wbs_adr_0[9]
*68 io_wbs_adr_1[0]
*69 io_wbs_adr_1[10]
*70 io_wbs_adr_1[11]
*71 io_wbs_adr_1[12]
*72 io_wbs_adr_1[13]
*73 io_wbs_adr_1[14]
*74 io_wbs_adr_1[15]
*75 io_wbs_adr_1[16]
*76 io_wbs_adr_1[17]
*77 io_wbs_adr_1[18]
*78 io_wbs_adr_1[19]
*79 io_wbs_adr_1[1]
*80 io_wbs_adr_1[20]
*81 io_wbs_adr_1[21]
*82 io_wbs_adr_1[22]
*83 io_wbs_adr_1[23]
*84 io_wbs_adr_1[24]
*85 io_wbs_adr_1[25]
*86 io_wbs_adr_1[26]
*87 io_wbs_adr_1[27]
*88 io_wbs_adr_1[28]
*89 io_wbs_adr_1[29]
*90 io_wbs_adr_1[2]
*91 io_wbs_adr_1[30]
*92 io_wbs_adr_1[31]
*93 io_wbs_adr_1[3]
*94 io_wbs_adr_1[4]
*95 io_wbs_adr_1[5]
*96 io_wbs_adr_1[6]
*97 io_wbs_adr_1[7]
*98 io_wbs_adr_1[8]
*99 io_wbs_adr_1[9]
*100 io_wbs_cyc
*101 io_wbs_cyc_0
*102 io_wbs_cyc_1
*103 io_wbs_datrd[0]
*104 io_wbs_datrd[10]
*105 io_wbs_datrd[11]
*106 io_wbs_datrd[12]
*107 io_wbs_datrd[13]
*108 io_wbs_datrd[14]
*109 io_wbs_datrd[15]
*110 io_wbs_datrd[16]
*111 io_wbs_datrd[17]
*112 io_wbs_datrd[18]
*113 io_wbs_datrd[19]
*114 io_wbs_datrd[1]
*115 io_wbs_datrd[20]
*116 io_wbs_datrd[21]
*117 io_wbs_datrd[22]
*118 io_wbs_datrd[23]
*119 io_wbs_datrd[24]
*120 io_wbs_datrd[25]
*121 io_wbs_datrd[26]
*122 io_wbs_datrd[27]
*123 io_wbs_datrd[28]
*124 io_wbs_datrd[29]
*125 io_wbs_datrd[2]
*126 io_wbs_datrd[30]
*127 io_wbs_datrd[31]
*128 io_wbs_datrd[3]
*129 io_wbs_datrd[4]
*130 io_wbs_datrd[5]
*131 io_wbs_datrd[6]
*132 io_wbs_datrd[7]
*133 io_wbs_datrd[8]
*134 io_wbs_datrd[9]
*135 io_wbs_datrd_0[0]
*136 io_wbs_datrd_0[10]
*137 io_wbs_datrd_0[11]
*138 io_wbs_datrd_0[12]
*139 io_wbs_datrd_0[13]
*140 io_wbs_datrd_0[14]
*141 io_wbs_datrd_0[15]
*142 io_wbs_datrd_0[16]
*143 io_wbs_datrd_0[17]
*144 io_wbs_datrd_0[18]
*145 io_wbs_datrd_0[19]
*146 io_wbs_datrd_0[1]
*147 io_wbs_datrd_0[20]
*148 io_wbs_datrd_0[21]
*149 io_wbs_datrd_0[22]
*150 io_wbs_datrd_0[23]
*151 io_wbs_datrd_0[24]
*152 io_wbs_datrd_0[25]
*153 io_wbs_datrd_0[26]
*154 io_wbs_datrd_0[27]
*155 io_wbs_datrd_0[28]
*156 io_wbs_datrd_0[29]
*157 io_wbs_datrd_0[2]
*158 io_wbs_datrd_0[30]
*159 io_wbs_datrd_0[31]
*160 io_wbs_datrd_0[3]
*161 io_wbs_datrd_0[4]
*162 io_wbs_datrd_0[5]
*163 io_wbs_datrd_0[6]
*164 io_wbs_datrd_0[7]
*165 io_wbs_datrd_0[8]
*166 io_wbs_datrd_0[9]
*167 io_wbs_datrd_1[0]
*168 io_wbs_datrd_1[10]
*169 io_wbs_datrd_1[11]
*170 io_wbs_datrd_1[12]
*171 io_wbs_datrd_1[13]
*172 io_wbs_datrd_1[14]
*173 io_wbs_datrd_1[15]
*174 io_wbs_datrd_1[16]
*175 io_wbs_datrd_1[17]
*176 io_wbs_datrd_1[18]
*177 io_wbs_datrd_1[19]
*178 io_wbs_datrd_1[1]
*179 io_wbs_datrd_1[20]
*180 io_wbs_datrd_1[21]
*181 io_wbs_datrd_1[22]
*182 io_wbs_datrd_1[23]
*183 io_wbs_datrd_1[24]
*184 io_wbs_datrd_1[25]
*185 io_wbs_datrd_1[26]
*186 io_wbs_datrd_1[27]
*187 io_wbs_datrd_1[28]
*188 io_wbs_datrd_1[29]
*189 io_wbs_datrd_1[2]
*190 io_wbs_datrd_1[30]
*191 io_wbs_datrd_1[31]
*192 io_wbs_datrd_1[3]
*193 io_wbs_datrd_1[4]
*194 io_wbs_datrd_1[5]
*195 io_wbs_datrd_1[6]
*196 io_wbs_datrd_1[7]
*197 io_wbs_datrd_1[8]
*198 io_wbs_datrd_1[9]
*199 io_wbs_datwr[0]
*200 io_wbs_datwr[10]
*201 io_wbs_datwr[11]
*202 io_wbs_datwr[12]
*203 io_wbs_datwr[13]
*204 io_wbs_datwr[14]
*205 io_wbs_datwr[15]
*206 io_wbs_datwr[16]
*207 io_wbs_datwr[17]
*208 io_wbs_datwr[18]
*209 io_wbs_datwr[19]
*210 io_wbs_datwr[1]
*211 io_wbs_datwr[20]
*212 io_wbs_datwr[21]
*213 io_wbs_datwr[22]
*214 io_wbs_datwr[23]
*215 io_wbs_datwr[24]
*216 io_wbs_datwr[25]
*217 io_wbs_datwr[26]
*218 io_wbs_datwr[27]
*219 io_wbs_datwr[28]
*220 io_wbs_datwr[29]
*221 io_wbs_datwr[2]
*222 io_wbs_datwr[30]
*223 io_wbs_datwr[31]
*224 io_wbs_datwr[3]
*225 io_wbs_datwr[4]
*226 io_wbs_datwr[5]
*227 io_wbs_datwr[6]
*228 io_wbs_datwr[7]
*229 io_wbs_datwr[8]
*230 io_wbs_datwr[9]
*231 io_wbs_datwr_0[0]
*232 io_wbs_datwr_0[10]
*233 io_wbs_datwr_0[11]
*234 io_wbs_datwr_0[12]
*235 io_wbs_datwr_0[13]
*236 io_wbs_datwr_0[14]
*237 io_wbs_datwr_0[15]
*238 io_wbs_datwr_0[16]
*239 io_wbs_datwr_0[17]
*240 io_wbs_datwr_0[18]
*241 io_wbs_datwr_0[19]
*242 io_wbs_datwr_0[1]
*243 io_wbs_datwr_0[20]
*244 io_wbs_datwr_0[21]
*245 io_wbs_datwr_0[22]
*246 io_wbs_datwr_0[23]
*247 io_wbs_datwr_0[24]
*248 io_wbs_datwr_0[25]
*249 io_wbs_datwr_0[26]
*250 io_wbs_datwr_0[27]
*251 io_wbs_datwr_0[28]
*252 io_wbs_datwr_0[29]
*253 io_wbs_datwr_0[2]
*254 io_wbs_datwr_0[30]
*255 io_wbs_datwr_0[31]
*256 io_wbs_datwr_0[3]
*257 io_wbs_datwr_0[4]
*258 io_wbs_datwr_0[5]
*259 io_wbs_datwr_0[6]
*260 io_wbs_datwr_0[7]
*261 io_wbs_datwr_0[8]
*262 io_wbs_datwr_0[9]
*263 io_wbs_datwr_1[0]
*264 io_wbs_datwr_1[10]
*265 io_wbs_datwr_1[11]
*266 io_wbs_datwr_1[12]
*267 io_wbs_datwr_1[13]
*268 io_wbs_datwr_1[14]
*269 io_wbs_datwr_1[15]
*270 io_wbs_datwr_1[16]
*271 io_wbs_datwr_1[17]
*272 io_wbs_datwr_1[18]
*273 io_wbs_datwr_1[19]
*274 io_wbs_datwr_1[1]
*275 io_wbs_datwr_1[20]
*276 io_wbs_datwr_1[21]
*277 io_wbs_datwr_1[22]
*278 io_wbs_datwr_1[23]
*279 io_wbs_datwr_1[24]
*280 io_wbs_datwr_1[25]
*281 io_wbs_datwr_1[26]
*282 io_wbs_datwr_1[27]
*283 io_wbs_datwr_1[28]
*284 io_wbs_datwr_1[29]
*285 io_wbs_datwr_1[2]
*286 io_wbs_datwr_1[30]
*287 io_wbs_datwr_1[31]
*288 io_wbs_datwr_1[3]
*289 io_wbs_datwr_1[4]
*290 io_wbs_datwr_1[5]
*291 io_wbs_datwr_1[6]
*292 io_wbs_datwr_1[7]
*293 io_wbs_datwr_1[8]
*294 io_wbs_datwr_1[9]
*295 io_wbs_sel[0]
*296 io_wbs_sel[1]
*297 io_wbs_sel[2]
*298 io_wbs_sel[3]
*299 io_wbs_sel_0[0]
*300 io_wbs_sel_0[1]
*301 io_wbs_sel_0[2]
*302 io_wbs_sel_0[3]
*303 io_wbs_sel_1[0]
*304 io_wbs_sel_1[1]
*305 io_wbs_sel_1[2]
*306 io_wbs_sel_1[3]
*307 io_wbs_stb
*308 io_wbs_stb_0
*309 io_wbs_stb_1
*310 io_wbs_we
*311 io_wbs_we_0
*312 io_wbs_we_1
*315 _000_
*316 _001_
*317 _002_
*318 _003_
*319 _004_
*320 _005_
*321 _006_
*322 _007_
*323 _008_
*324 _009_
*325 _010_
*326 _011_
*327 _012_
*328 _013_
*329 _014_
*330 _015_
*331 _016_
*332 _017_
*333 _018_
*334 _019_
*335 _020_
*336 _021_
*337 _022_
*338 _023_
*339 _024_
*340 _025_
*341 _026_
*342 _027_
*343 _028_
*344 net1
*345 net10
*346 net100
*347 net101
*348 net102
*349 net103
*350 net104
*351 net105
*352 net106
*353 net107
*354 net108
*355 net109
*356 net11
*357 net110
*358 net111
*359 net112
*360 net113
*361 net114
*362 net115
*363 net116
*364 net117
*365 net118
*366 net119
*367 net12
*368 net120
*369 net121
*370 net122
*371 net123
*372 net124
*373 net125
*374 net126
*375 net127
*376 net128
*377 net129
*378 net13
*379 net130
*380 net131
*381 net132
*382 net133
*383 net134
*384 net135
*385 net136
*386 net137
*387 net138
*388 net139
*389 net14
*390 net140
*391 net141
*392 net142
*393 net143
*394 net144
*395 net145
*396 net146
*397 net147
*398 net148
*399 net149
*400 net15
*401 net150
*402 net151
*403 net152
*404 net153
*405 net154
*406 net155
*407 net156
*408 net157
*409 net158
*410 net159
*411 net16
*412 net160
*413 net161
*414 net162
*415 net163
*416 net164
*417 net165
*418 net166
*419 net167
*420 net168
*421 net169
*422 net17
*423 net170
*424 net171
*425 net172
*426 net173
*427 net174
*428 net175
*429 net176
*430 net177
*431 net178
*432 net179
*433 net18
*434 net180
*435 net181
*436 net182
*437 net183
*438 net184
*439 net185
*440 net186
*441 net187
*442 net188
*443 net189
*444 net19
*445 net190
*446 net191
*447 net192
*448 net193
*449 net194
*450 net195
*451 net196
*452 net197
*453 net198
*454 net199
*455 net2
*456 net20
*457 net200
*458 net201
*459 net202
*460 net203
*461 net204
*462 net205
*463 net206
*464 net207
*465 net208
*466 net209
*467 net21
*468 net210
*469 net211
*470 net212
*471 net213
*472 net214
*473 net215
*474 net216
*475 net217
*476 net218
*477 net219
*478 net22
*479 net220
*480 net221
*481 net222
*482 net223
*483 net224
*484 net225
*485 net226
*486 net227
*487 net228
*488 net229
*489 net23
*490 net230
*491 net231
*492 net232
*493 net233
*494 net234
*495 net235
*496 net236
*497 net237
*498 net238
*499 net239
*500 net24
*501 net240
*502 net241
*503 net242
*504 net243
*505 net244
*506 net245
*507 net246
*508 net247
*509 net248
*510 net249
*511 net25
*512 net250
*513 net251
*514 net252
*515 net253
*516 net254
*517 net255
*518 net256
*519 net257
*520 net258
*521 net259
*522 net26
*523 net260
*524 net261
*525 net262
*526 net263
*527 net264
*528 net265
*529 net266
*530 net267
*531 net268
*532 net269
*533 net27
*534 net270
*535 net271
*536 net272
*537 net273
*538 net274
*539 net275
*540 net276
*541 net277
*542 net278
*543 net279
*544 net28
*545 net280
*546 net281
*547 net282
*548 net283
*549 net284
*550 net285
*551 net286
*552 net287
*553 net288
*554 net289
*555 net29
*556 net290
*557 net291
*558 net292
*559 net293
*560 net294
*561 net295
*562 net296
*563 net297
*564 net298
*565 net299
*566 net3
*567 net30
*568 net300
*569 net301
*570 net302
*571 net303
*572 net304
*573 net305
*574 net306
*575 net307
*576 net308
*577 net309
*578 net31
*579 net310
*580 net311
*581 net312
*582 net32
*583 net33
*584 net34
*585 net35
*586 net36
*587 net37
*588 net38
*589 net39
*590 net4
*591 net40
*592 net41
*593 net42
*594 net43
*595 net44
*596 net45
*597 net46
*598 net47
*599 net48
*600 net49
*601 net5
*602 net50
*603 net51
*604 net52
*605 net53
*606 net54
*607 net55
*608 net56
*609 net57
*610 net58
*611 net59
*612 net6
*613 net60
*614 net61
*615 net62
*616 net63
*617 net64
*618 net65
*619 net66
*620 net67
*621 net68
*622 net69
*623 net7
*624 net70
*625 net71
*626 net72
*627 net73
*628 net74
*629 net75
*630 net76
*631 net77
*632 net78
*633 net79
*634 net8
*635 net80
*636 net81
*637 net82
*638 net83
*639 net84
*640 net85
*641 net86
*642 net87
*643 net88
*644 net89
*645 net9
*646 net90
*647 net91
*648 net92
*649 net93
*650 net94
*651 net95
*652 net96
*653 net97
*654 net98
*655 net99
*656 ANTENNA__029__A
*657 ANTENNA__029__B
*658 ANTENNA__029__C
*659 ANTENNA__029__D
*660 ANTENNA__030__A
*661 ANTENNA__030__B
*662 ANTENNA__030__C_N
*663 ANTENNA__030__D_N
*664 ANTENNA__032__A
*665 ANTENNA__032__B
*666 ANTENNA__032__C
*667 ANTENNA__033__A
*668 ANTENNA__033__B
*669 ANTENNA__033__C
*670 ANTENNA__033__D
*671 ANTENNA__034__A
*672 ANTENNA__034__B
*673 ANTENNA__034__C
*674 ANTENNA__034__D
*675 ANTENNA__036__A_N
*676 ANTENNA__036__C
*677 ANTENNA__037__A
*678 ANTENNA__039__A
*679 ANTENNA__039__C
*680 ANTENNA__040__A
*681 ANTENNA__042__A1
*682 ANTENNA__042__B2
*683 ANTENNA__043__A1
*684 ANTENNA__043__B2
*685 ANTENNA__044__A1
*686 ANTENNA__044__B2
*687 ANTENNA__045__A1
*688 ANTENNA__045__B2
*689 ANTENNA__046__A1
*690 ANTENNA__046__B2
*691 ANTENNA__049__A1
*692 ANTENNA__049__B2
*693 ANTENNA__050__A1
*694 ANTENNA__050__B2
*695 ANTENNA__051__A1
*696 ANTENNA__051__B2
*697 ANTENNA__052__A1
*698 ANTENNA__052__B2
*699 ANTENNA__053__A1
*700 ANTENNA__053__B2
*701 ANTENNA__056__A1
*702 ANTENNA__056__B2
*703 ANTENNA__057__A1
*704 ANTENNA__057__B2
*705 ANTENNA__058__A1
*706 ANTENNA__058__B2
*707 ANTENNA__059__A1
*708 ANTENNA__059__B2
*709 ANTENNA__060__A1
*710 ANTENNA__060__B2
*711 ANTENNA__063__A1
*712 ANTENNA__063__B2
*713 ANTENNA__064__A1
*714 ANTENNA__064__B2
*715 ANTENNA__065__A1
*716 ANTENNA__065__B2
*717 ANTENNA__066__A1
*718 ANTENNA__066__B2
*719 ANTENNA__067__A1
*720 ANTENNA__067__B2
*721 ANTENNA__070__A1
*722 ANTENNA__070__B2
*723 ANTENNA__071__A1
*724 ANTENNA__071__B2
*725 ANTENNA__072__A1
*726 ANTENNA__072__B2
*727 ANTENNA__073__A1
*728 ANTENNA__073__B2
*729 ANTENNA__074__A1
*730 ANTENNA__074__B2
*731 ANTENNA__075__A
*732 ANTENNA__076__A
*733 ANTENNA__077__A1
*734 ANTENNA__077__B2
*735 ANTENNA__078__A1
*736 ANTENNA__078__B2
*737 ANTENNA__079__A1
*738 ANTENNA__079__B2
*739 ANTENNA__080__A1
*740 ANTENNA__080__B2
*741 ANTENNA__081__A1
*742 ANTENNA__081__B2
*743 ANTENNA__082__A
*744 ANTENNA__083__A
*745 ANTENNA__084__A1
*746 ANTENNA__084__B2
*747 ANTENNA__085__A1
*748 ANTENNA__085__B2
*749 ANTENNA__086__A1
*750 ANTENNA__086__B2
*751 ANTENNA__087__A
*752 ANTENNA__089__A
*753 ANTENNA__091__A
*754 ANTENNA__093__A
*755 ANTENNA__107__A
*756 ANTENNA__108__A
*757 ANTENNA__109__A
*758 ANTENNA__110__A
*759 ANTENNA__111__A
*760 ANTENNA__112__A
*761 ANTENNA__113__A
*762 ANTENNA__114__A
*763 ANTENNA__115__A
*764 ANTENNA__116__A
*765 ANTENNA__117__A
*766 ANTENNA__118__A
*767 ANTENNA__119__A
*768 ANTENNA__120__A
*769 ANTENNA__121__A
*770 ANTENNA__122__A
*771 ANTENNA__123__A
*772 ANTENNA__124__A
*773 ANTENNA__125__A
*774 ANTENNA__126__A
*775 ANTENNA__139__A
*776 ANTENNA__140__A
*777 ANTENNA__141__A
*778 ANTENNA__142__A
*779 ANTENNA__143__A
*780 ANTENNA__144__A
*781 ANTENNA__145__A
*782 ANTENNA__146__A
*783 ANTENNA__147__A
*784 ANTENNA__148__A
*785 ANTENNA__149__A
*786 ANTENNA__150__A
*787 ANTENNA__151__A
*788 ANTENNA__152__A
*789 ANTENNA__153__A
*790 ANTENNA__154__A
*791 ANTENNA__155__A
*792 ANTENNA__156__A
*793 ANTENNA__157__A
*794 ANTENNA__158__A
*795 ANTENNA__159__A
*796 ANTENNA__160__A
*797 ANTENNA__161__A
*798 ANTENNA__162__A
*799 ANTENNA__163__A
*800 ANTENNA__164__A
*801 ANTENNA__165__A
*802 ANTENNA__166__A
*803 ANTENNA__167__A
*804 ANTENNA__168__A
*805 ANTENNA__169__A
*806 ANTENNA__170__A
*807 ANTENNA__171__A
*808 ANTENNA__172__A
*809 ANTENNA__173__A
*810 ANTENNA__174__A
*811 ANTENNA__175__A
*812 ANTENNA__176__A
*813 ANTENNA__177__A
*814 ANTENNA__178__A
*815 ANTENNA__179__A
*816 ANTENNA__180__A
*817 ANTENNA__181__A
*818 ANTENNA__182__A
*819 ANTENNA__183__A
*820 ANTENNA__184__A
*821 ANTENNA__185__A
*822 ANTENNA__186__A
*823 ANTENNA__187__A
*824 ANTENNA__188__A
*825 ANTENNA__189__A
*826 ANTENNA__190__A
*827 ANTENNA__191__A
*828 ANTENNA__192__A
*829 ANTENNA__193__A
*830 ANTENNA__194__A
*831 ANTENNA__195__A
*832 ANTENNA__196__A
*833 ANTENNA__197__A
*834 ANTENNA__198__A
*835 ANTENNA__199__A
*836 ANTENNA__200__A
*837 ANTENNA__201__A
*838 ANTENNA__202__A
*839 ANTENNA__203__A
*840 ANTENNA__204__A
*841 ANTENNA__205__A
*842 ANTENNA__206__A
*843 ANTENNA__207__A
*844 ANTENNA__208__A
*845 ANTENNA__209__A
*846 ANTENNA__210__A
*847 ANTENNA__211__A
*848 ANTENNA__212__A
*849 ANTENNA__213__A
*850 ANTENNA__214__A
*851 ANTENNA__215__A
*852 ANTENNA__216__A
*853 ANTENNA__217__A
*854 ANTENNA__218__A
*855 ANTENNA__219__A
*856 ANTENNA__220__A
*857 ANTENNA__221__A
*858 ANTENNA__222__A
*859 ANTENNA__223__A
*860 ANTENNA__224__A
*861 ANTENNA__225__A
*862 ANTENNA__226__A
*863 ANTENNA__227__A
*864 ANTENNA__228__A
*865 ANTENNA__229__A
*866 ANTENNA__230__A
*867 ANTENNA__231__A
*868 ANTENNA__232__A
*869 ANTENNA_input100_A
*870 ANTENNA_input101_A
*871 ANTENNA_input102_A
*872 ANTENNA_input103_A
*873 ANTENNA_input104_A
*874 ANTENNA_input105_A
*875 ANTENNA_input106_A
*876 ANTENNA_input107_A
*877 ANTENNA_input108_A
*878 ANTENNA_input109_A
*879 ANTENNA_input10_A
*880 ANTENNA_input110_A
*881 ANTENNA_input111_A
*882 ANTENNA_input112_A
*883 ANTENNA_input113_A
*884 ANTENNA_input114_A
*885 ANTENNA_input115_A
*886 ANTENNA_input116_A
*887 ANTENNA_input117_A
*888 ANTENNA_input118_A
*889 ANTENNA_input119_A
*890 ANTENNA_input11_A
*891 ANTENNA_input120_A
*892 ANTENNA_input121_A
*893 ANTENNA_input122_A
*894 ANTENNA_input123_A
*895 ANTENNA_input124_A
*896 ANTENNA_input125_A
*897 ANTENNA_input126_A
*898 ANTENNA_input127_A
*899 ANTENNA_input128_A
*900 ANTENNA_input129_A
*901 ANTENNA_input12_A
*902 ANTENNA_input130_A
*903 ANTENNA_input131_A
*904 ANTENNA_input132_A
*905 ANTENNA_input133_A
*906 ANTENNA_input134_A
*907 ANTENNA_input135_A
*908 ANTENNA_input136_A
*909 ANTENNA_input137_A
*910 ANTENNA_input13_A
*911 ANTENNA_input14_A
*912 ANTENNA_input15_A
*913 ANTENNA_input16_A
*914 ANTENNA_input17_A
*915 ANTENNA_input18_A
*916 ANTENNA_input19_A
*917 ANTENNA_input1_A
*918 ANTENNA_input20_A
*919 ANTENNA_input21_A
*920 ANTENNA_input22_A
*921 ANTENNA_input23_A
*922 ANTENNA_input24_A
*923 ANTENNA_input25_A
*924 ANTENNA_input26_A
*925 ANTENNA_input27_A
*926 ANTENNA_input28_A
*927 ANTENNA_input29_A
*928 ANTENNA_input2_A
*929 ANTENNA_input30_A
*930 ANTENNA_input31_A
*931 ANTENNA_input32_A
*932 ANTENNA_input33_A
*933 ANTENNA_input34_A
*934 ANTENNA_input35_A
*935 ANTENNA_input36_A
*936 ANTENNA_input37_A
*937 ANTENNA_input38_A
*938 ANTENNA_input39_A
*939 ANTENNA_input3_A
*940 ANTENNA_input40_A
*941 ANTENNA_input41_A
*942 ANTENNA_input42_A
*943 ANTENNA_input43_A
*944 ANTENNA_input44_A
*945 ANTENNA_input45_A
*946 ANTENNA_input46_A
*947 ANTENNA_input47_A
*948 ANTENNA_input48_A
*949 ANTENNA_input49_A
*950 ANTENNA_input4_A
*951 ANTENNA_input50_A
*952 ANTENNA_input51_A
*953 ANTENNA_input52_A
*954 ANTENNA_input53_A
*955 ANTENNA_input54_A
*956 ANTENNA_input55_A
*957 ANTENNA_input56_A
*958 ANTENNA_input57_A
*959 ANTENNA_input58_A
*960 ANTENNA_input59_A
*961 ANTENNA_input5_A
*962 ANTENNA_input60_A
*963 ANTENNA_input61_A
*964 ANTENNA_input62_A
*965 ANTENNA_input63_A
*966 ANTENNA_input64_A
*967 ANTENNA_input65_A
*968 ANTENNA_input66_A
*969 ANTENNA_input67_A
*970 ANTENNA_input68_A
*971 ANTENNA_input69_A
*972 ANTENNA_input6_A
*973 ANTENNA_input70_A
*974 ANTENNA_input71_A
*975 ANTENNA_input72_A
*976 ANTENNA_input73_A
*977 ANTENNA_input74_A
*978 ANTENNA_input75_A
*979 ANTENNA_input76_A
*980 ANTENNA_input77_A
*981 ANTENNA_input78_A
*982 ANTENNA_input79_A
*983 ANTENNA_input7_A
*984 ANTENNA_input80_A
*985 ANTENNA_input81_A
*986 ANTENNA_input82_A
*987 ANTENNA_input83_A
*988 ANTENNA_input84_A
*989 ANTENNA_input85_A
*990 ANTENNA_input86_A
*991 ANTENNA_input87_A
*992 ANTENNA_input88_A
*993 ANTENNA_input89_A
*994 ANTENNA_input8_A
*995 ANTENNA_input90_A
*996 ANTENNA_input91_A
*997 ANTENNA_input92_A
*998 ANTENNA_input93_A
*999 ANTENNA_input94_A
*1000 ANTENNA_input95_A
*1001 ANTENNA_input96_A
*1002 ANTENNA_input97_A
*1003 ANTENNA_input98_A
*1004 ANTENNA_input99_A
*1005 ANTENNA_input9_A
*1006 ANTENNA_output138_A
*1007 ANTENNA_output139_A
*1008 ANTENNA_output140_A
*1009 ANTENNA_output141_A
*1010 ANTENNA_output142_A
*1011 ANTENNA_output143_A
*1012 ANTENNA_output144_A
*1013 ANTENNA_output145_A
*1014 ANTENNA_output146_A
*1015 ANTENNA_output147_A
*1016 ANTENNA_output148_A
*1017 ANTENNA_output149_A
*1018 ANTENNA_output150_A
*1019 ANTENNA_output151_A
*1020 ANTENNA_output152_A
*1021 ANTENNA_output153_A
*1022 ANTENNA_output154_A
*1023 ANTENNA_output155_A
*1024 ANTENNA_output156_A
*1025 ANTENNA_output157_A
*1026 ANTENNA_output158_A
*1027 ANTENNA_output159_A
*1028 ANTENNA_output160_A
*1029 ANTENNA_output161_A
*1030 ANTENNA_output162_A
*1031 ANTENNA_output163_A
*1032 ANTENNA_output164_A
*1033 ANTENNA_output165_A
*1034 ANTENNA_output166_A
*1035 ANTENNA_output167_A
*1036 ANTENNA_output168_A
*1037 ANTENNA_output169_A
*1038 ANTENNA_output170_A
*1039 ANTENNA_output189_A
*1040 ANTENNA_output190_A
*1041 ANTENNA_output191_A
*1042 ANTENNA_output192_A
*1043 ANTENNA_output194_A
*1044 ANTENNA_output195_A
*1045 ANTENNA_output203_A
*1046 ANTENNA_output204_A
*1047 ANTENNA_output205_A
*1048 ANTENNA_output206_A
*1049 ANTENNA_output207_A
*1050 ANTENNA_output208_A
*1051 ANTENNA_output209_A
*1052 ANTENNA_output210_A
*1053 ANTENNA_output211_A
*1054 ANTENNA_output212_A
*1055 ANTENNA_output213_A
*1056 ANTENNA_output214_A
*1057 ANTENNA_output215_A
*1058 ANTENNA_output216_A
*1059 ANTENNA_output217_A
*1060 ANTENNA_output218_A
*1061 ANTENNA_output219_A
*1062 ANTENNA_output220_A
*1063 ANTENNA_output221_A
*1064 ANTENNA_output222_A
*1065 ANTENNA_output223_A
*1066 ANTENNA_output224_A
*1067 ANTENNA_output225_A
*1068 ANTENNA_output226_A
*1069 ANTENNA_output227_A
*1070 ANTENNA_output228_A
*1071 ANTENNA_output229_A
*1072 ANTENNA_output230_A
*1073 ANTENNA_output231_A
*1074 ANTENNA_output232_A
*1075 ANTENNA_output233_A
*1076 ANTENNA_output234_A
*1077 ANTENNA_output235_A
*1078 ANTENNA_output236_A
*1079 ANTENNA_output237_A
*1080 ANTENNA_output238_A
*1081 ANTENNA_output239_A
*1082 ANTENNA_output240_A
*1083 ANTENNA_output241_A
*1084 ANTENNA_output242_A
*1085 ANTENNA_output243_A
*1086 ANTENNA_output244_A
*1087 ANTENNA_output245_A
*1088 ANTENNA_output246_A
*1089 ANTENNA_output247_A
*1090 ANTENNA_output248_A
*1091 ANTENNA_output249_A
*1092 ANTENNA_output250_A
*1093 ANTENNA_output251_A
*1094 ANTENNA_output252_A
*1095 ANTENNA_output253_A
*1096 ANTENNA_output254_A
*1097 ANTENNA_output255_A
*1098 ANTENNA_output256_A
*1099 ANTENNA_output257_A
*1100 ANTENNA_output258_A
*1101 ANTENNA_output259_A
*1102 ANTENNA_output260_A
*1103 ANTENNA_output261_A
*1104 ANTENNA_output262_A
*1105 ANTENNA_output263_A
*1106 ANTENNA_output264_A
*1107 ANTENNA_output265_A
*1108 ANTENNA_output266_A
*1109 ANTENNA_output267_A
*1110 ANTENNA_output268_A
*1111 ANTENNA_output269_A
*1112 ANTENNA_output270_A
*1113 ANTENNA_output271_A
*1114 ANTENNA_output272_A
*1115 ANTENNA_output273_A
*1116 ANTENNA_output274_A
*1117 ANTENNA_output275_A
*1118 ANTENNA_output276_A
*1119 ANTENNA_output277_A
*1120 ANTENNA_output278_A
*1121 ANTENNA_output279_A
*1122 ANTENNA_output280_A
*1123 ANTENNA_output281_A
*1124 ANTENNA_output282_A
*1125 ANTENNA_output283_A
*1126 ANTENNA_output284_A
*1127 ANTENNA_output285_A
*1128 ANTENNA_output286_A
*1129 ANTENNA_output287_A
*1130 ANTENNA_output288_A
*1131 ANTENNA_output289_A
*1132 ANTENNA_output290_A
*1133 ANTENNA_output291_A
*1134 ANTENNA_output292_A
*1135 ANTENNA_output293_A
*1136 ANTENNA_output294_A
*1137 ANTENNA_output295_A
*1138 ANTENNA_output296_A
*1139 ANTENNA_output297_A
*1140 ANTENNA_output298_A
*1141 ANTENNA_output299_A
*1142 ANTENNA_output300_A
*1143 ANTENNA_output305_A
*1144 ANTENNA_output306_A
*1145 ANTENNA_output307_A
*1146 ANTENNA_output308_A
*1147 ANTENNA_output309_A
*1148 ANTENNA_output310_A
*1149 ANTENNA_output312_A
*1150 FILLER_0_100
*1151 FILLER_0_108
*1152 FILLER_0_113
*1153 FILLER_0_119
*1154 FILLER_0_127
*1155 FILLER_0_135
*1156 FILLER_0_139
*1157 FILLER_0_14
*1158 FILLER_0_141
*1159 FILLER_0_148
*1160 FILLER_0_156
*1161 FILLER_0_164
*1162 FILLER_0_169
*1163 FILLER_0_175
*1164 FILLER_0_18
*1165 FILLER_0_183
*1166 FILLER_0_191
*1167 FILLER_0_195
*1168 FILLER_0_197
*1169 FILLER_0_204
*1170 FILLER_0_212
*1171 FILLER_0_22
*1172 FILLER_0_220
*1173 FILLER_0_225
*1174 FILLER_0_231
*1175 FILLER_0_239
*1176 FILLER_0_247
*1177 FILLER_0_251
*1178 FILLER_0_253
*1179 FILLER_0_257
*1180 FILLER_0_262
*1181 FILLER_0_276
*1182 FILLER_0_283
*1183 FILLER_0_291
*1184 FILLER_0_3
*1185 FILLER_0_304
*1186 FILLER_0_31
*1187 FILLER_0_311
*1188 FILLER_0_315
*1189 FILLER_0_318
*1190 FILLER_0_332
*1191 FILLER_0_347
*1192 FILLER_0_359
*1193 FILLER_0_363
*1194 FILLER_0_365
*1195 FILLER_0_372
*1196 FILLER_0_38
*1197 FILLER_0_380
*1198 FILLER_0_388
*1199 FILLER_0_393
*1200 FILLER_0_399
*1201 FILLER_0_407
*1202 FILLER_0_415
*1203 FILLER_0_419
*1204 FILLER_0_423
*1205 FILLER_0_431
*1206 FILLER_0_439
*1207 FILLER_0_447
*1208 FILLER_0_45
*1209 FILLER_0_453
*1210 FILLER_0_461
*1211 FILLER_0_469
*1212 FILLER_0_475
*1213 FILLER_0_481
*1214 FILLER_0_489
*1215 FILLER_0_497
*1216 FILLER_0_503
*1217 FILLER_0_509
*1218 FILLER_0_517
*1219 FILLER_0_52
*1220 FILLER_0_525
*1221 FILLER_0_531
*1222 FILLER_0_537
*1223 FILLER_0_545
*1224 FILLER_0_553
*1225 FILLER_0_559
*1226 FILLER_0_565
*1227 FILLER_0_57
*1228 FILLER_0_573
*1229 FILLER_0_581
*1230 FILLER_0_587
*1231 FILLER_0_593
*1232 FILLER_0_601
*1233 FILLER_0_609
*1234 FILLER_0_615
*1235 FILLER_0_62
*1236 FILLER_0_621
*1237 FILLER_0_629
*1238 FILLER_0_637
*1239 FILLER_0_643
*1240 FILLER_0_649
*1241 FILLER_0_657
*1242 FILLER_0_66
*1243 FILLER_0_665
*1244 FILLER_0_671
*1245 FILLER_0_677
*1246 FILLER_0_685
*1247 FILLER_0_693
*1248 FILLER_0_699
*1249 FILLER_0_7
*1250 FILLER_0_70
*1251 FILLER_0_705
*1252 FILLER_0_713
*1253 FILLER_0_721
*1254 FILLER_0_727
*1255 FILLER_0_733
*1256 FILLER_0_74
*1257 FILLER_0_741
*1258 FILLER_0_749
*1259 FILLER_0_755
*1260 FILLER_0_761
*1261 FILLER_0_769
*1262 FILLER_0_777
*1263 FILLER_0_78
*1264 FILLER_0_783
*1265 FILLER_0_789
*1266 FILLER_0_797
*1267 FILLER_0_805
*1268 FILLER_0_811
*1269 FILLER_0_817
*1270 FILLER_0_825
*1271 FILLER_0_833
*1272 FILLER_0_839
*1273 FILLER_0_841
*1274 FILLER_0_85
*1275 FILLER_0_89
*1276 FILLER_0_93
*1277 FILLER_100_109
*1278 FILLER_100_121
*1279 FILLER_100_13
*1280 FILLER_100_133
*1281 FILLER_100_139
*1282 FILLER_100_141
*1283 FILLER_100_153
*1284 FILLER_100_165
*1285 FILLER_100_177
*1286 FILLER_100_189
*1287 FILLER_100_195
*1288 FILLER_100_197
*1289 FILLER_100_209
*1290 FILLER_100_221
*1291 FILLER_100_233
*1292 FILLER_100_245
*1293 FILLER_100_25
*1294 FILLER_100_251
*1295 FILLER_100_253
*1296 FILLER_100_265
*1297 FILLER_100_277
*1298 FILLER_100_289
*1299 FILLER_100_29
*1300 FILLER_100_301
*1301 FILLER_100_307
*1302 FILLER_100_309
*1303 FILLER_100_321
*1304 FILLER_100_333
*1305 FILLER_100_345
*1306 FILLER_100_357
*1307 FILLER_100_363
*1308 FILLER_100_365
*1309 FILLER_100_377
*1310 FILLER_100_389
*1311 FILLER_100_401
*1312 FILLER_100_41
*1313 FILLER_100_413
*1314 FILLER_100_419
*1315 FILLER_100_421
*1316 FILLER_100_433
*1317 FILLER_100_445
*1318 FILLER_100_457
*1319 FILLER_100_469
*1320 FILLER_100_475
*1321 FILLER_100_477
*1322 FILLER_100_489
*1323 FILLER_100_501
*1324 FILLER_100_513
*1325 FILLER_100_525
*1326 FILLER_100_53
*1327 FILLER_100_531
*1328 FILLER_100_533
*1329 FILLER_100_545
*1330 FILLER_100_557
*1331 FILLER_100_569
*1332 FILLER_100_581
*1333 FILLER_100_587
*1334 FILLER_100_589
*1335 FILLER_100_601
*1336 FILLER_100_613
*1337 FILLER_100_625
*1338 FILLER_100_628
*1339 FILLER_100_640
*1340 FILLER_100_65
*1341 FILLER_100_655
*1342 FILLER_100_669
*1343 FILLER_100_675
*1344 FILLER_100_687
*1345 FILLER_100_699
*1346 FILLER_100_7
*1347 FILLER_100_701
*1348 FILLER_100_713
*1349 FILLER_100_725
*1350 FILLER_100_737
*1351 FILLER_100_749
*1352 FILLER_100_755
*1353 FILLER_100_757
*1354 FILLER_100_769
*1355 FILLER_100_77
*1356 FILLER_100_781
*1357 FILLER_100_793
*1358 FILLER_100_805
*1359 FILLER_100_811
*1360 FILLER_100_813
*1361 FILLER_100_825
*1362 FILLER_100_83
*1363 FILLER_100_831
*1364 FILLER_100_838
*1365 FILLER_100_85
*1366 FILLER_100_97
*1367 FILLER_101_105
*1368 FILLER_101_111
*1369 FILLER_101_113
*1370 FILLER_101_125
*1371 FILLER_101_137
*1372 FILLER_101_149
*1373 FILLER_101_161
*1374 FILLER_101_167
*1375 FILLER_101_169
*1376 FILLER_101_181
*1377 FILLER_101_19
*1378 FILLER_101_193
*1379 FILLER_101_205
*1380 FILLER_101_217
*1381 FILLER_101_223
*1382 FILLER_101_225
*1383 FILLER_101_237
*1384 FILLER_101_249
*1385 FILLER_101_261
*1386 FILLER_101_273
*1387 FILLER_101_279
*1388 FILLER_101_281
*1389 FILLER_101_293
*1390 FILLER_101_305
*1391 FILLER_101_31
*1392 FILLER_101_317
*1393 FILLER_101_329
*1394 FILLER_101_335
*1395 FILLER_101_337
*1396 FILLER_101_349
*1397 FILLER_101_361
*1398 FILLER_101_373
*1399 FILLER_101_385
*1400 FILLER_101_391
*1401 FILLER_101_393
*1402 FILLER_101_405
*1403 FILLER_101_417
*1404 FILLER_101_429
*1405 FILLER_101_43
*1406 FILLER_101_441
*1407 FILLER_101_447
*1408 FILLER_101_449
*1409 FILLER_101_461
*1410 FILLER_101_473
*1411 FILLER_101_485
*1412 FILLER_101_497
*1413 FILLER_101_503
*1414 FILLER_101_505
*1415 FILLER_101_517
*1416 FILLER_101_529
*1417 FILLER_101_541
*1418 FILLER_101_55
*1419 FILLER_101_553
*1420 FILLER_101_559
*1421 FILLER_101_561
*1422 FILLER_101_57
*1423 FILLER_101_573
*1424 FILLER_101_585
*1425 FILLER_101_597
*1426 FILLER_101_609
*1427 FILLER_101_615
*1428 FILLER_101_617
*1429 FILLER_101_623
*1430 FILLER_101_629
*1431 FILLER_101_641
*1432 FILLER_101_659
*1433 FILLER_101_665
*1434 FILLER_101_671
*1435 FILLER_101_681
*1436 FILLER_101_687
*1437 FILLER_101_69
*1438 FILLER_101_699
*1439 FILLER_101_7
*1440 FILLER_101_711
*1441 FILLER_101_723
*1442 FILLER_101_727
*1443 FILLER_101_729
*1444 FILLER_101_741
*1445 FILLER_101_753
*1446 FILLER_101_765
*1447 FILLER_101_777
*1448 FILLER_101_783
*1449 FILLER_101_785
*1450 FILLER_101_797
*1451 FILLER_101_809
*1452 FILLER_101_81
*1453 FILLER_101_821
*1454 FILLER_101_836
*1455 FILLER_101_841
*1456 FILLER_101_93
*1457 FILLER_102_109
*1458 FILLER_102_121
*1459 FILLER_102_133
*1460 FILLER_102_139
*1461 FILLER_102_141
*1462 FILLER_102_153
*1463 FILLER_102_165
*1464 FILLER_102_17
*1465 FILLER_102_177
*1466 FILLER_102_189
*1467 FILLER_102_195
*1468 FILLER_102_197
*1469 FILLER_102_209
*1470 FILLER_102_221
*1471 FILLER_102_233
*1472 FILLER_102_245
*1473 FILLER_102_25
*1474 FILLER_102_251
*1475 FILLER_102_253
*1476 FILLER_102_265
*1477 FILLER_102_277
*1478 FILLER_102_289
*1479 FILLER_102_29
*1480 FILLER_102_301
*1481 FILLER_102_307
*1482 FILLER_102_309
*1483 FILLER_102_321
*1484 FILLER_102_333
*1485 FILLER_102_345
*1486 FILLER_102_357
*1487 FILLER_102_363
*1488 FILLER_102_365
*1489 FILLER_102_377
*1490 FILLER_102_389
*1491 FILLER_102_401
*1492 FILLER_102_41
*1493 FILLER_102_413
*1494 FILLER_102_419
*1495 FILLER_102_421
*1496 FILLER_102_433
*1497 FILLER_102_445
*1498 FILLER_102_457
*1499 FILLER_102_469
*1500 FILLER_102_475
*1501 FILLER_102_477
*1502 FILLER_102_489
*1503 FILLER_102_5
*1504 FILLER_102_501
*1505 FILLER_102_513
*1506 FILLER_102_525
*1507 FILLER_102_53
*1508 FILLER_102_531
*1509 FILLER_102_533
*1510 FILLER_102_545
*1511 FILLER_102_557
*1512 FILLER_102_569
*1513 FILLER_102_581
*1514 FILLER_102_587
*1515 FILLER_102_589
*1516 FILLER_102_601
*1517 FILLER_102_613
*1518 FILLER_102_625
*1519 FILLER_102_628
*1520 FILLER_102_640