*SPEF "ieee 1481-1999"
*DESIGN "wb_memory"
*DATE "11:11:11 Fri 11 11, 1111"
*VENDOR "OpenRCX"
*PROGRAM "Parallel Extraction"
*VERSION "1.0"
*DESIGN_FLOW "NAME_SCOPE LOCAL" "PIN_CAP NONE"
*DIVIDER /
*DELIMITER :
*BUS_DELIMITER []
*T_UNIT 1 NS
*C_UNIT 1 PF
*R_UNIT 1 OHM
*L_UNIT 1 HENRY

*NAME_MAP
*1 addr_mem0[0]
*2 addr_mem0[1]
*3 addr_mem0[2]
*4 addr_mem0[3]
*5 addr_mem0[4]
*6 addr_mem0[5]
*7 addr_mem0[6]
*8 addr_mem0[7]
*9 addr_mem0[8]
*10 addr_mem1[0]
*11 addr_mem1[1]
*12 addr_mem1[2]
*13 addr_mem1[3]
*14 addr_mem1[4]
*15 addr_mem1[5]
*16 addr_mem1[6]
*17 addr_mem1[7]
*18 addr_mem1[8]
*19 net240
*20 net241
*21 din_mem0[0]
*22 din_mem0[10]
*23 din_mem0[11]
*24 din_mem0[12]
*25 din_mem0[13]
*26 din_mem0[14]
*27 din_mem0[15]
*28 din_mem0[16]
*29 din_mem0[17]
*30 din_mem0[18]
*31 din_mem0[19]
*32 din_mem0[1]
*33 din_mem0[20]
*34 din_mem0[21]
*35 din_mem0[22]
*36 din_mem0[23]
*37 din_mem0[24]
*38 din_mem0[25]
*39 din_mem0[26]
*40 din_mem0[27]
*41 din_mem0[28]
*42 din_mem0[29]
*43 din_mem0[2]
*44 din_mem0[30]
*45 din_mem0[31]
*46 din_mem0[3]
*47 din_mem0[4]
*48 din_mem0[5]
*49 din_mem0[6]
*50 din_mem0[7]
*51 din_mem0[8]
*52 din_mem0[9]
*53 din_mem1[0]
*54 din_mem1[10]
*55 din_mem1[11]
*56 din_mem1[12]
*57 din_mem1[13]
*58 din_mem1[14]
*59 din_mem1[15]
*60 din_mem1[16]
*61 din_mem1[17]
*62 din_mem1[18]
*63 din_mem1[19]
*64 din_mem1[1]
*65 din_mem1[20]
*66 din_mem1[21]
*67 din_mem1[22]
*68 din_mem1[23]
*69 din_mem1[24]
*70 din_mem1[25]
*71 din_mem1[26]
*72 din_mem1[27]
*73 din_mem1[28]
*74 din_mem1[29]
*75 din_mem1[2]
*76 din_mem1[30]
*77 din_mem1[31]
*78 din_mem1[3]
*79 din_mem1[4]
*80 din_mem1[5]
*81 din_mem1[6]
*82 din_mem1[7]
*83 din_mem1[8]
*84 din_mem1[9]
*85 dout_mem0[0]
*86 dout_mem0[10]
*87 dout_mem0[11]
*88 dout_mem0[12]
*89 dout_mem0[13]
*90 dout_mem0[14]
*91 dout_mem0[15]
*92 dout_mem0[16]
*93 dout_mem0[17]
*94 dout_mem0[18]
*95 dout_mem0[19]
*96 dout_mem0[1]
*97 dout_mem0[20]
*98 dout_mem0[21]
*99 dout_mem0[22]
*100 dout_mem0[23]
*101 dout_mem0[24]
*102 dout_mem0[25]
*103 dout_mem0[26]
*104 dout_mem0[27]
*105 dout_mem0[28]
*106 dout_mem0[29]
*107 dout_mem0[2]
*108 dout_mem0[30]
*109 dout_mem0[31]
*110 dout_mem0[3]
*111 dout_mem0[4]
*112 dout_mem0[5]
*113 dout_mem0[6]
*114 dout_mem0[7]
*115 dout_mem0[8]
*116 dout_mem0[9]
*117 dout_mem1[0]
*118 dout_mem1[10]
*119 dout_mem1[11]
*120 dout_mem1[12]
*121 dout_mem1[13]
*122 dout_mem1[14]
*123 dout_mem1[15]
*124 dout_mem1[16]
*125 dout_mem1[17]
*126 dout_mem1[18]
*127 dout_mem1[19]
*128 dout_mem1[1]
*129 dout_mem1[20]
*130 dout_mem1[21]
*131 dout_mem1[22]
*132 dout_mem1[23]
*133 dout_mem1[24]
*134 dout_mem1[25]
*135 dout_mem1[26]
*136 dout_mem1[27]
*137 dout_mem1[28]
*138 dout_mem1[29]
*139 dout_mem1[2]
*140 dout_mem1[30]
*141 dout_mem1[31]
*142 dout_mem1[3]
*143 dout_mem1[4]
*144 dout_mem1[5]
*145 dout_mem1[6]
*146 dout_mem1[7]
*147 dout_mem1[8]
*148 dout_mem1[9]
*149 io_wbs_ack
*150 io_wbs_adr[0]
*151 io_wbs_adr[10]
*152 io_wbs_adr[11]
*153 io_wbs_adr[12]
*154 io_wbs_adr[13]
*155 io_wbs_adr[14]
*156 io_wbs_adr[15]
*157 io_wbs_adr[16]
*158 io_wbs_adr[17]
*159 io_wbs_adr[18]
*160 io_wbs_adr[19]
*161 io_wbs_adr[1]
*162 io_wbs_adr[20]
*163 io_wbs_adr[21]
*164 io_wbs_adr[22]
*165 io_wbs_adr[23]
*166 io_wbs_adr[24]
*167 io_wbs_adr[25]
*168 io_wbs_adr[26]
*169 io_wbs_adr[27]
*170 io_wbs_adr[28]
*171 io_wbs_adr[29]
*172 io_wbs_adr[2]
*173 io_wbs_adr[30]
*174 io_wbs_adr[31]
*175 io_wbs_adr[3]
*176 io_wbs_adr[4]
*177 io_wbs_adr[5]
*178 io_wbs_adr[6]
*179 io_wbs_adr[7]
*180 io_wbs_adr[8]
*181 io_wbs_adr[9]
*182 io_wbs_clk
*183 io_wbs_cyc
*184 io_wbs_datrd[0]
*185 io_wbs_datrd[10]
*186 io_wbs_datrd[11]
*187 io_wbs_datrd[12]
*188 io_wbs_datrd[13]
*189 io_wbs_datrd[14]
*190 io_wbs_datrd[15]
*191 io_wbs_datrd[16]
*192 io_wbs_datrd[17]
*193 io_wbs_datrd[18]
*194 io_wbs_datrd[19]
*195 io_wbs_datrd[1]
*196 io_wbs_datrd[20]
*197 io_wbs_datrd[21]
*198 io_wbs_datrd[22]
*199 io_wbs_datrd[23]
*200 io_wbs_datrd[24]
*201 io_wbs_datrd[25]
*202 io_wbs_datrd[26]
*203 io_wbs_datrd[27]
*204 io_wbs_datrd[28]
*205 io_wbs_datrd[29]
*206 io_wbs_datrd[2]
*207 io_wbs_datrd[30]
*208 io_wbs_datrd[31]
*209 io_wbs_datrd[3]
*210 io_wbs_datrd[4]
*211 io_wbs_datrd[5]
*212 io_wbs_datrd[6]
*213 io_wbs_datrd[7]
*214 io_wbs_datrd[8]
*215 io_wbs_datrd[9]
*216 io_wbs_datwr[0]
*217 io_wbs_datwr[10]
*218 io_wbs_datwr[11]
*219 io_wbs_datwr[12]
*220 io_wbs_datwr[13]
*221 io_wbs_datwr[14]
*222 io_wbs_datwr[15]
*223 io_wbs_datwr[16]
*224 io_wbs_datwr[17]
*225 io_wbs_datwr[18]
*226 io_wbs_datwr[19]
*227 io_wbs_datwr[1]
*228 io_wbs_datwr[20]
*229 io_wbs_datwr[21]
*230 io_wbs_datwr[22]
*231 io_wbs_datwr[23]
*232 io_wbs_datwr[24]
*233 io_wbs_datwr[25]
*234 io_wbs_datwr[26]
*235 io_wbs_datwr[27]
*236 io_wbs_datwr[28]
*237 io_wbs_datwr[29]
*238 io_wbs_datwr[2]
*239 io_wbs_datwr[30]
*240 io_wbs_datwr[31]
*241 io_wbs_datwr[3]
*242 io_wbs_datwr[4]
*243 io_wbs_datwr[5]
*244 io_wbs_datwr[6]
*245 io_wbs_datwr[7]
*246 io_wbs_datwr[8]
*247 io_wbs_datwr[9]
*248 io_wbs_rst
*249 io_wbs_sel[0]
*250 io_wbs_sel[1]
*251 io_wbs_sel[2]
*252 io_wbs_sel[3]
*253 io_wbs_stb
*254 io_wbs_we
*257 web_mem0
*258 web_mem1
*259 wmask_mem0[0]
*260 wmask_mem0[1]
*261 wmask_mem0[2]
*262 wmask_mem0[3]
*263 wmask_mem1[0]
*264 wmask_mem1[1]
*265 wmask_mem1[2]
*266 wmask_mem1[3]
*267 _000_
*268 _001_
*269 _002_
*270 _003_
*271 _004_
*272 _005_
*273 _006_
*274 _007_
*275 _008_
*276 _009_
*277 _010_
*278 _011_
*279 _012_
*280 _013_
*281 _014_
*282 _015_
*283 _016_
*284 _017_
*285 _018_
*286 _019_
*287 _020_
*288 _021_
*289 _022_
*290 _023_
*291 _024_
*292 _025_
*293 _026_
*294 _027_
*295 _028_
*296 _029_
*297 _030_
*298 _031_
*299 _032_
*300 _033_
*301 _034_
*302 _035_
*303 _036_
*304 _037_
*305 _038_
*306 _039_
*307 _040_
*308 _041_
*309 _042_
*310 _043_
*311 _044_
*312 _045_
*313 _046_
*314 _047_
*315 _048_
*316 _049_
*317 _050_
*318 _051_
*319 _052_
*320 _053_
*321 _054_
*322 _055_
*323 _056_
*324 _057_
*325 _058_
*326 _059_
*327 _060_
*328 _061_
*329 _062_
*330 _063_
*331 _064_
*332 _065_
*333 _066_
*334 _067_
*335 _068_
*336 _069_
*337 _070_
*338 _071_
*339 _072_
*340 _073_
*341 _074_
*342 _075_
*343 _076_
*344 _077_
*345 _078_
*346 _079_
*347 _080_
*348 _081_
*349 _082_
*350 _083_
*351 _084_
*352 _085_
*353 _086_
*354 _087_
*355 _088_
*356 _089_
*357 _090_
*358 _091_
*359 _092_
*360 _093_
*361 _094_
*362 _095_
*363 _096_
*364 _097_
*365 _098_
*366 _099_
*367 _100_
*368 _101_
*369 _102_
*370 _103_
*371 _104_
*372 _105_
*373 _106_
*374 _107_
*375 _108_
*376 _109_
*377 _110_
*378 _111_
*379 _112_
*380 _113_
*381 _114_
*382 _115_
*383 _116_
*384 _117_
*385 _118_
*386 _119_
*387 _120_
*388 _121_
*389 _122_
*390 _123_
*391 _124_
*392 _125_
*393 _126_
*394 _127_
*395 _128_
*396 _129_
*397 _130_
*398 _131_
*399 _132_
*400 _133_
*401 _134_
*402 _135_
*403 _136_
*404 _137_
*405 _138_
*406 _139_
*407 _140_
*408 _141_
*409 _142_
*410 _143_
*411 _144_
*412 _145_
*413 _146_
*414 _147_
*415 _148_
*416 _149_
*417 _150_
*418 _151_
*419 _152_
*420 _153_
*421 _154_
*422 _155_
*423 _156_
*424 _157_
*425 clknet_0_io_wbs_clk
*426 clknet_2_0__leaf_io_wbs_clk
*427 clknet_2_1__leaf_io_wbs_clk
*428 clknet_2_2__leaf_io_wbs_clk
*429 clknet_2_3__leaf_io_wbs_clk
*430 net1
*431 net10
*432 net100
*433 net101
*434 net102
*435 net103
*436 net104
*437 net105
*438 net106
*439 net107
*440 net108
*441 net109
*442 net11
*443 net110
*444 net111
*445 net112
*446 net113
*447 net114
*448 net115
*449 net116
*450 net117
*451 net118
*452 net119
*453 net12
*454 net120
*455 net121
*456 net122
*457 net123
*458 net124
*459 net125
*460 net126
*461 net127
*462 net128
*463 net129
*464 net13
*465 net130
*466 net131
*467 net132
*468 net133
*469 net134
*470 net135
*471 net136
*472 net137
*473 net138
*474 net139
*475 net14
*476 net140
*477 net141
*478 net142
*479 net143
*480 net144
*481 net145
*482 net146
*483 net147
*484 net148
*485 net149
*486 net15
*487 net150
*488 net151
*489 net152
*490 net153
*491 net154
*492 net155
*493 net156
*494 net157
*495 net158
*496 net159
*497 net16
*498 net160
*499 net161
*500 net162
*501 net163
*502 net164
*503 net165
*504 net166
*505 net167
*506 net168
*507 net169
*508 net17
*509 net170
*510 net171
*511 net172
*512 net173
*513 net174
*514 net175
*515 net176
*516 net177
*517 net178
*518 net179
*519 net18
*520 net180
*521 net181
*522 net182
*523 net183
*524 net184
*525 net185
*526 net186
*527 net187
*528 net188
*529 net189
*530 net19
*531 net190
*532 net191
*533 net192
*534 net193
*535 net194
*536 net195
*537 net196
*538 net197
*539 net198
*540 net199
*541 net2
*542 net20
*543 net200
*544 net201
*545 net202
*546 net203
*547 net204
*548 net205
*549 net206
*550 net207
*551 net208
*552 net209
*553 net21
*554 net210
*555 net211
*556 net212
*557 net213
*558 net214
*559 net215
*560 net216
*561 net217
*562 net218
*563 net219
*564 net22
*565 net220
*566 net221
*567 net222
*568 net223
*569 net224
*570 net225
*571 net226
*572 net227
*573 net228
*574 net229
*575 net23
*576 net230
*577 net231
*578 net232
*579 net233
*580 net234
*581 net235
*582 net236
*583 net237
*584 net238
*585 net239
*586 net24
*587 net25
*588 net26
*589 net27
*590 net28
*591 net29
*592 net3
*593 net30
*594 net31
*595 net32
*596 net33
*597 net34
*598 net35
*599 net36
*600 net37
*601 net38
*602 net39
*603 net4
*604 net40
*605 net41
*606 net42
*607 net43
*608 net44
*609 net45
*610 net46
*611 net47
*612 net48
*613 net49
*614 net5
*615 net50
*616 net51
*617 net52
*618 net53
*619 net54
*620 net55
*621 net56
*622 net57
*623 net58
*624 net59
*625 net6
*626 net60
*627 net61
*628 net62
*629 net63
*630 net64
*631 net65
*632 net66
*633 net67
*634 net68
*635 net69
*636 net7
*637 net70
*638 net71
*639 net72
*640 net73
*641 net74
*642 net75
*643 net76
*644 net77
*645 net78
*646 net79
*647 net8
*648 net80
*649 net81
*650 net82
*651 net83
*652 net84
*653 net85
*654 net86
*655 net87
*656 net88
*657 net89
*658 net9
*659 net90
*660 net91
*661 net92
*662 net93
*663 net94
*664 net95
*665 net96
*666 net97
*667 net98
*668 net99
*669 web_mem
*670 ANTENNA__158__A_N
*671 ANTENNA__159__A
*672 ANTENNA__160__A
*673 ANTENNA__161__A
*674 ANTENNA__163__A1
*675 ANTENNA__163__S
*676 ANTENNA__164__A0
*677 ANTENNA__164__A1
*678 ANTENNA__164__S
*679 ANTENNA__166__A1
*680 ANTENNA__166__S
*681 ANTENNA__167__A0
*682 ANTENNA__167__A1
*683 ANTENNA__167__S
*684 ANTENNA__169__A1
*685 ANTENNA__169__S
*686 ANTENNA__170__A0
*687 ANTENNA__170__A1
*688 ANTENNA__170__S
*689 ANTENNA__172__A
*690 ANTENNA__173__A
*691 ANTENNA__174__A1
*692 ANTENNA__175__A
*693 ANTENNA__176__A
*694 ANTENNA__177__A0
*695 ANTENNA__177__A1
*696 ANTENNA__179__A1
*697 ANTENNA__180__A0
*698 ANTENNA__180__A1
*699 ANTENNA__182__A1
*700 ANTENNA__183__A0
*701 ANTENNA__183__A1
*702 ANTENNA__185__A1
*703 ANTENNA__186__A0
*704 ANTENNA__186__A1
*705 ANTENNA__188__A1
*706 ANTENNA__189__A0
*707 ANTENNA__189__A1
*708 ANTENNA__192__A1
*709 ANTENNA__193__A
*710 ANTENNA__194__A0
*711 ANTENNA__194__A1
*712 ANTENNA__196__A1
*713 ANTENNA__197__A0
*714 ANTENNA__197__A1
*715 ANTENNA__199__A1
*716 ANTENNA__200__A0
*717 ANTENNA__200__A1
*718 ANTENNA__202__A1
*719 ANTENNA__203__A0
*720 ANTENNA__203__A1
*721 ANTENNA__205__A1
*722 ANTENNA__206__A0
*723 ANTENNA__206__A1
*724 ANTENNA__209__A1
*725 ANTENNA__210__A
*726 ANTENNA__211__A0
*727 ANTENNA__211__A1
*728 ANTENNA__213__A0
*729 ANTENNA__213__A1
*730 ANTENNA__214__A0
*731 ANTENNA__214__A1
*732 ANTENNA__216__A0
*733 ANTENNA__216__A1
*734 ANTENNA__217__A0
*735 ANTENNA__217__A1
*736 ANTENNA__219__A0
*737 ANTENNA__219__A1
*738 ANTENNA__220__A0
*739 ANTENNA__220__A1
*740 ANTENNA__222__A1
*741 ANTENNA__223__A0
*742 ANTENNA__223__A1
*743 ANTENNA__226__A1
*744 ANTENNA__227__A
*745 ANTENNA__228__A0
*746 ANTENNA__228__A1
*747 ANTENNA__230__A1
*748 ANTENNA__231__A0
*749 ANTENNA__231__A1
*750 ANTENNA__233__A1
*751 ANTENNA__234__A1
*752 ANTENNA__236__A1
*753 ANTENNA__237__A1
*754 ANTENNA__239__A1
*755 ANTENNA__240__A1
*756 ANTENNA__243__A1
*757 ANTENNA__244__A
*758 ANTENNA__245__A1
*759 ANTENNA__247__A1
*760 ANTENNA__248__A1
*761 ANTENNA__250__A1
*762 ANTENNA__251__A1
*763 ANTENNA__253__A1
*764 ANTENNA__254__A1
*765 ANTENNA__256__A1
*766 ANTENNA__257__A1
*767 ANTENNA__259__A1
*768 ANTENNA__259__S
*769 ANTENNA__260__A1
*770 ANTENNA__260__S
*771 ANTENNA__262__A1
*772 ANTENNA__262__S
*773 ANTENNA__263__A1
*774 ANTENNA__263__S
*775 ANTENNA__265__A1
*776 ANTENNA__265__S
*777 ANTENNA__266__A1
*778 ANTENNA__266__S
*779 ANTENNA__268__A1
*780 ANTENNA__268__S
*781 ANTENNA__269__A1
*782 ANTENNA__269__S
*783 ANTENNA__271__A
*784 ANTENNA__271__B
*785 ANTENNA__272__A
*786 ANTENNA__272__B_N
*787 ANTENNA__274__A
*788 ANTENNA__274__B
*789 ANTENNA__276__A
*790 ANTENNA__277__A
*791 ANTENNA__283__A
*792 ANTENNA__284__A
*793 ANTENNA__290__A
*794 ANTENNA__296__A
*795 ANTENNA__302__A
*796 ANTENNA__308__A
*797 ANTENNA__314__A
*798 ANTENNA__315__A
*799 ANTENNA__316__A
*800 ANTENNA__317__A
*801 ANTENNA__318__CLK
*802 ANTENNA__319__CLK
*803 ANTENNA__320__CLK
*804 ANTENNA__321__CLK
*805 ANTENNA__322__CLK
*806 ANTENNA__323__CLK
*807 ANTENNA__324__CLK
*808 ANTENNA__325__CLK
*809 ANTENNA__326__CLK
*810 ANTENNA__327__CLK
*811 ANTENNA__328__CLK
*812 ANTENNA__329__CLK
*813 ANTENNA__330__CLK
*814 ANTENNA__331__CLK
*815 ANTENNA__332__CLK
*816 ANTENNA__333__CLK
*817 ANTENNA__334__CLK
*818 ANTENNA__335__CLK
*819 ANTENNA__336__CLK
*820 ANTENNA__337__CLK
*821 ANTENNA__338__CLK
*822 ANTENNA__339__CLK
*823 ANTENNA__340__CLK
*824 ANTENNA__341__CLK
*825 ANTENNA__342__CLK
*826 ANTENNA__343__CLK
*827 ANTENNA__344__CLK
*828 ANTENNA__345__CLK
*829 ANTENNA__346__CLK
*830 ANTENNA__347__CLK
*831 ANTENNA__348__CLK
*832 ANTENNA__349__CLK
*833 ANTENNA__350__CLK
*834 ANTENNA__350__D
*835 ANTENNA__351__CLK
*836 ANTENNA__354__A
*837 ANTENNA__355__A
*838 ANTENNA__356__A
*839 ANTENNA__357__A
*840 ANTENNA__358__A
*841 ANTENNA__359__A
*842 ANTENNA__360__A
*843 ANTENNA__361__A
*844 ANTENNA__362__A
*845 ANTENNA__363__A
*846 ANTENNA__364__A
*847 ANTENNA__365__A
*848 ANTENNA__366__A
*849 ANTENNA__367__A
*850 ANTENNA__368__A
*851 ANTENNA__369__A
*852 ANTENNA__370__A
*853 ANTENNA__371__A
*854 ANTENNA__372__A
*855 ANTENNA__373__A
*856 ANTENNA__374__A
*857 ANTENNA__375__A
*858 ANTENNA__376__A
*859 ANTENNA__377__A
*860 ANTENNA__378__A
*861 ANTENNA__379__A
*862 ANTENNA__380__A
*863 ANTENNA__381__A
*864 ANTENNA__382__A
*865 ANTENNA__383__A
*866 ANTENNA__384__A
*867 ANTENNA__385__A
*868 ANTENNA__386__A
*869 ANTENNA__387__A
*870 ANTENNA__388__A
*871 ANTENNA__389__A
*872 ANTENNA__390__A
*873 ANTENNA__391__A
*874 ANTENNA__392__A
*875 ANTENNA__393__A
*876 ANTENNA__394__A
*877 ANTENNA__395__A
*878 ANTENNA__396__A
*879 ANTENNA__397__A
*880 ANTENNA__398__A
*881 ANTENNA__399__A
*882 ANTENNA__400__A
*883 ANTENNA__401__A
*884 ANTENNA__402__A
*885 ANTENNA__403__A
*886 ANTENNA__404__A
*887 ANTENNA__405__A
*888 ANTENNA__406__A
*889 ANTENNA__407__A
*890 ANTENNA__408__A
*891 ANTENNA__409__A
*892 ANTENNA__410__A
*893 ANTENNA__411__A
*894 ANTENNA__412__A
*895 ANTENNA__413__A
*896 ANTENNA__414__A
*897 ANTENNA__415__A
*898 ANTENNA__416__A
*899 ANTENNA__417__A
*900 ANTENNA__418__A
*901 ANTENNA__419__A
*902 ANTENNA__420__A
*903 ANTENNA__421__A
*904 ANTENNA__422__A
*905 ANTENNA__423__A
*906 ANTENNA__424__A
*907 ANTENNA__425__A
*908 ANTENNA__426__A
*909 ANTENNA__427__A
*910 ANTENNA__428__A
*911 ANTENNA__429__A
*912 ANTENNA__430__A
*913 ANTENNA__431__A
*914 ANTENNA__432__A
*915 ANTENNA__433__A
*916 ANTENNA__434__A
*917 ANTENNA__435__A
*918 ANTENNA__436__A
*919 ANTENNA__437__A
*920 ANTENNA__438__A
*921 ANTENNA__439__A
*922 ANTENNA__440__A
*923 ANTENNA__441__A
*924 ANTENNA__442__A
*925 ANTENNA__443__A
*926 ANTENNA_clkbuf_0_io_wbs_clk_A
*927 ANTENNA_input100_A
*928 ANTENNA_input101_A
*929 ANTENNA_input102_A
*930 ANTENNA_input103_A
*931 ANTENNA_input104_A
*932 ANTENNA_input105_A
*933 ANTENNA_input106_A
*934 ANTENNA_input107_A
*935 ANTENNA_input108_A
*936 ANTENNA_input109_A
*937 ANTENNA_input10_A
*938 ANTENNA_input110_A
*939 ANTENNA_input111_A
*940 ANTENNA_input112_A
*941 ANTENNA_input113_A
*942 ANTENNA_input114_A
*943 ANTENNA_input11_A
*944 ANTENNA_input12_A
*945 ANTENNA_input13_A
*946 ANTENNA_input14_A
*947 ANTENNA_input15_A
*948 ANTENNA_input16_A
*949 ANTENNA_input17_A
*950 ANTENNA_input18_A
*951 ANTENNA_input19_A
*952 ANTENNA_input1_A
*953 ANTENNA_input20_A
*954 ANTENNA_input21_A
*955 ANTENNA_input22_A
*956 ANTENNA_input23_A
*957 ANTENNA_input24_A
*958 ANTENNA_input25_A
*959 ANTENNA_input26_A
*960 ANTENNA_input27_A
*961 ANTENNA_input28_A
*962 ANTENNA_input29_A
*963 ANTENNA_input2_A
*964 ANTENNA_input30_A
*965 ANTENNA_input31_A
*966 ANTENNA_input32_A
*967 ANTENNA_input33_A
*968 ANTENNA_input34_A
*969 ANTENNA_input35_A
*970 ANTENNA_input36_A
*971 ANTENNA_input37_A
*972 ANTENNA_input38_A
*973 ANTENNA_input39_A
*974 ANTENNA_input3_A
*975 ANTENNA_input40_A
*976 ANTENNA_input41_A
*977 ANTENNA_input42_A
*978 ANTENNA_input43_A
*979 ANTENNA_input44_A
*980 ANTENNA_input45_A
*981 ANTENNA_input46_A
*982 ANTENNA_input47_A
*983 ANTENNA_input48_A
*984 ANTENNA_input49_A
*985 ANTENNA_input4_A
*986 ANTENNA_input50_A
*987 ANTENNA_input51_A
*988 ANTENNA_input52_A
*989 ANTENNA_input53_A
*990 ANTENNA_input54_A
*991 ANTENNA_input55_A
*992 ANTENNA_input56_A
*993 ANTENNA_input57_A
*994 ANTENNA_input58_A
*995 ANTENNA_input59_A
*996 ANTENNA_input5_A
*997 ANTENNA_input60_A
*998 ANTENNA_input61_A
*999 ANTENNA_input62_A
*1000 ANTENNA_input63_A
*1001 ANTENNA_input64_A
*1002 ANTENNA_input65_A
*1003 ANTENNA_input66_A
*1004 ANTENNA_input67_A
*1005 ANTENNA_input68_A
*1006 ANTENNA_input69_A
*1007 ANTENNA_input6_A
*1008 ANTENNA_input70_A
*1009 ANTENNA_input71_A
*1010 ANTENNA_input72_A
*1011 ANTENNA_input73_A
*1012 ANTENNA_input74_A
*1013 ANTENNA_input75_A
*1014 ANTENNA_input76_A
*1015 ANTENNA_input77_A
*1016 ANTENNA_input78_A
*1017 ANTENNA_input79_A
*1018 ANTENNA_input7_A
*1019 ANTENNA_input80_A
*1020 ANTENNA_input81_A
*1021 ANTENNA_input82_A
*1022 ANTENNA_input83_A
*1023 ANTENNA_input84_A
*1024 ANTENNA_input85_A
*1025 ANTENNA_input86_A
*1026 ANTENNA_input87_A
*1027 ANTENNA_input88_A
*1028 ANTENNA_input89_A
*1029 ANTENNA_input8_A
*1030 ANTENNA_input90_A
*1031 ANTENNA_input91_A
*1032 ANTENNA_input92_A
*1033 ANTENNA_input93_A
*1034 ANTENNA_input94_A
*1035 ANTENNA_input95_A
*1036 ANTENNA_input96_A
*1037 ANTENNA_input97_A
*1038 ANTENNA_input98_A
*1039 ANTENNA_input99_A
*1040 ANTENNA_input9_A
*1041 ANTENNA_output116_A
*1042 ANTENNA_output122_A
*1043 ANTENNA_output123_A
*1044 ANTENNA_output125_A
*1045 ANTENNA_output126_A
*1046 ANTENNA_output127_A
*1047 ANTENNA_output128_A
*1048 ANTENNA_output129_A
*1049 ANTENNA_output130_A
*1050 ANTENNA_output131_A
*1051 ANTENNA_output132_A
*1052 ANTENNA_output134_A
*1053 ANTENNA_output135_A
*1054 ANTENNA_output136_A
*1055 ANTENNA_output137_A
*1056 ANTENNA_output138_A
*1057 ANTENNA_output139_A
*1058 ANTENNA_output140_A
*1059 ANTENNA_output141_A
*1060 ANTENNA_output142_A
*1061 ANTENNA_output143_A
*1062 ANTENNA_output145_A
*1063 ANTENNA_output146_A
*1064 ANTENNA_output147_A
*1065 ANTENNA_output148_A
*1066 ANTENNA_output149_A
*1067 ANTENNA_output150_A
*1068 ANTENNA_output151_A
*1069 ANTENNA_output152_A
*1070 ANTENNA_output153_A
*1071 ANTENNA_output154_A
*1072 ANTENNA_output156_A
*1073 ANTENNA_output165_A
*1074 ANTENNA_output166_A
*1075 ANTENNA_output167_A
*1076 ANTENNA_output168_A
*1077 ANTENNA_output169_A
*1078 ANTENNA_output170_A
*1079 ANTENNA_output171_A
*1080 ANTENNA_output172_A
*1081 ANTENNA_output173_A
*1082 ANTENNA_output174_A
*1083 ANTENNA_output175_A
*1084 ANTENNA_output176_A
*1085 ANTENNA_output187_A
*1086 ANTENNA_output190_A
*1087 ANTENNA_output191_A
*1088 ANTENNA_output192_A
*1089 ANTENNA_output193_A
*1090 ANTENNA_output194_A
*1091 ANTENNA_output195_A
*1092 ANTENNA_output196_A
*1093 ANTENNA_output197_A
*1094 ANTENNA_output201_A
*1095 ANTENNA_output202_A
*1096 ANTENNA_output203_A
*1097 ANTENNA_output204_A
*1098 ANTENNA_output205_A
*1099 ANTENNA_output206_A
*1100 ANTENNA_output207_A
*1101 ANTENNA_output208_A
*1102 ANTENNA_output210_A
*1103 ANTENNA_output211_A
*1104 ANTENNA_output212_A
*1105 ANTENNA_output213_A
*1106 ANTENNA_output214_A
*1107 ANTENNA_output215_A
*1108 ANTENNA_output216_A
*1109 ANTENNA_output217_A
*1110 ANTENNA_output218_A
*1111 ANTENNA_output219_A
*1112 ANTENNA_output221_A
*1113 ANTENNA_output222_A
*1114 ANTENNA_output230_A
*1115 ANTENNA_output236_A
*1116 ANTENNA_output237_A
*1117 ANTENNA_output238_A
*1118 ANTENNA_output239_A
*1119 FILLER_0_100
*1120 FILLER_0_1001
*1121 FILLER_0_1004
*1122 FILLER_0_1013
*1123 FILLER_0_1025
*1124 FILLER_0_1029
*1125 FILLER_0_1032
*1126 FILLER_0_1041
*1127 FILLER_0_1047
*1128 FILLER_0_1055
*1129 FILLER_0_1063
*1130 FILLER_0_1065
*1131 FILLER_0_1073
*1132 FILLER_0_1077
*1133 FILLER_0_1085
*1134 FILLER_0_1091
*1135 FILLER_0_1093
*1136 FILLER_0_1103
*1137 FILLER_0_1115
*1138 FILLER_0_1119
*1139 FILLER_0_1121
*1140 FILLER_0_1125
*1141 FILLER_0_113
*1142 FILLER_0_1130
*1143 FILLER_0_1142
*1144 FILLER_0_1149
*1145 FILLER_0_1159
*1146 FILLER_0_1167
*1147 FILLER_0_1172
*1148 FILLER_0_1181
*1149 FILLER_0_1185
*1150 FILLER_0_1192
*1151 FILLER_0_1205
*1152 FILLER_0_1209
*1153 FILLER_0_1212
*1154 FILLER_0_1220
*1155 FILLER_0_1228
*1156 FILLER_0_1237
*1157 FILLER_0_1249
*1158 FILLER_0_125
*1159 FILLER_0_1253
*1160 FILLER_0_1256
*1161 FILLER_0_1265
*1162 FILLER_0_1269
*1163 FILLER_0_1272
*1164 FILLER_0_1280
*1165 FILLER_0_1289
*1166 FILLER_0_1297
*1167 FILLER_0_1302
*1168 FILLER_0_1310
*1169 FILLER_0_1317
*1170 FILLER_0_1325
*1171 FILLER_0_133
*1172 FILLER_0_1337
*1173 FILLER_0_1343
*1174 FILLER_0_1347
*1175 FILLER_0_1355
*1176 FILLER_0_136
*1177 FILLER_0_1363
*1178 FILLER_0_1368
*1179 FILLER_0_1377
*1180 FILLER_0_1389
*1181 FILLER_0_1393
*1182 FILLER_0_1396
*1183 FILLER_0_1405
*1184 FILLER_0_1415
*1185 FILLER_0_1427
*1186 FILLER_0_1429
*1187 FILLER_0_1437
*1188 FILLER_0_1445
*1189 FILLER_0_1449
*1190 FILLER_0_1452
*1191 FILLER_0_1461
*1192 FILLER_0_147
*1193 FILLER_0_1473
*1194 FILLER_0_1481
*1195 FILLER_0_1485
*1196 FILLER_0_1490
*1197 FILLER_0_1494
*1198 FILLER_0_1497
*1199 FILLER_0_15
*1200 FILLER_0_1505
*1201 FILLER_0_1511
*1202 FILLER_0_1513
*1203 FILLER_0_1527
*1204 FILLER_0_1535
*1205 FILLER_0_1539
*1206 FILLER_0_1541
*1207 FILLER_0_1545
*1208 FILLER_0_155
*1209 FILLER_0_1552
*1210 FILLER_0_1564
*1211 FILLER_0_1569
*1212 FILLER_0_1572
*1213 FILLER_0_1580
*1214 FILLER_0_1592
*1215 FILLER_0_1599
*1216 FILLER_0_167
*1217 FILLER_0_169
*1218 FILLER_0_185
*1219 FILLER_0_189
*1220 FILLER_0_192
*1221 FILLER_0_20
*1222 FILLER_0_201
*1223 FILLER_0_207
*1224 FILLER_0_215
*1225 FILLER_0_223
*1226 FILLER_0_225
*1227 FILLER_0_235
*1228 FILLER_0_245
*1229 FILLER_0_251
*1230 FILLER_0_253
*1231 FILLER_0_260
*1232 FILLER_0_264
*1233 FILLER_0_267
*1234 FILLER_0_275
*1235 FILLER_0_279
*1236 FILLER_0_281
*1237 FILLER_0_285
*1238 FILLER_0_290
*1239 FILLER_0_296
*1240 FILLER_0_3
*1241 FILLER_0_304
*1242 FILLER_0_309
*1243 FILLER_0_31
*1244 FILLER_0_312
*1245 FILLER_0_320
*1246 FILLER_0_327
*1247 FILLER_0_335
*1248 FILLER_0_341
*1249 FILLER_0_345
*1250 FILLER_0_352
*1251 FILLER_0_360
*1252 FILLER_0_369
*1253 FILLER_0_375
*1254 FILLER_0_380
*1255 FILLER_0_388
*1256 FILLER_0_39
*1257 FILLER_0_393
*1258 FILLER_0_403
*1259 FILLER_0_411
*1260 FILLER_0_416
*1261 FILLER_0_42
*1262 FILLER_0_421
*1263 FILLER_0_444
*1264 FILLER_0_449
*1265 FILLER_0_455
*1266 FILLER_0_459
*1267 FILLER_0_462
*1268 FILLER_0_470
*1269 FILLER_0_477
*1270 FILLER_0_487
*1271 FILLER_0_49
*1272 FILLER_0_493
*1273 FILLER_0_500
*1274 FILLER_0_525
*1275 FILLER_0_531
*1276 FILLER_0_533
*1277 FILLER_0_543
*1278 FILLER_0_55
*1279 FILLER_0_551
*1280 FILLER_0_559
*1281 FILLER_0_561
*1282 FILLER_0_57
*1283 FILLER_0_571
*1284 FILLER_0_579
*1285 FILLER_0_587
*1286 FILLER_0_593
*1287 FILLER_0_607
*1288 FILLER_0_615
*1289 FILLER_0_621
*1290 FILLER_0_627
*1291 FILLER_0_635
*1292 FILLER_0_643
*1293 FILLER_0_645
*1294 FILLER_0_650
*1295 FILLER_0_654
*1296 FILLER_0_657
*1297 FILLER_0_665
*1298 FILLER_0_671
*1299 FILLER_0_673
*1300 FILLER_0_680
*1301 FILLER_0_684
*1302 FILLER_0_687
*1303 FILLER_0_695
*1304 FILLER_0_699
*1305 FILLER_0_703
*1306 FILLER_0_709
*1307 FILLER_0_71
*1308 FILLER_0_713
*1309 FILLER_0_716
*1310 FILLER_0_724
*1311 FILLER_0_729
*1312 FILLER_0_732
*1313 FILLER_0_742
*1314 FILLER_0_75
*1315 FILLER_0_754
*1316 FILLER_0_757
*1317 FILLER_0_762
*1318 FILLER_0_770
*1319 FILLER_0_776
*1320 FILLER_0_780
*1321 FILLER_0_785
*1322 FILLER_0_79
*1323 FILLER_0_795
*1324 FILLER_0_801
*1325 FILLER_0_805
*1326 FILLER_0_808
*1327 FILLER_0_817
*1328 FILLER_0_825
*1329 FILLER_0_83
*1330 FILLER_0_830
*1331 FILLER_0_836
*1332 FILLER_0_850
*1333 FILLER_0_860
*1334 FILLER_0_869
*1335 FILLER_0_87
*1336 FILLER_0_875
*1337 FILLER_0_881
*1338 FILLER_0_887
*1339 FILLER_0_895
*1340 FILLER_0_897
*1341 FILLER_0_905
*1342 FILLER_0_909
*1343 FILLER_0_912
*1344 FILLER_0_920
*1345 FILLER_0_925
*1346 FILLER_0_937
*1347 FILLER_0_94
*1348 FILLER_0_945
*1349 FILLER_0_948
*1350 FILLER_0_957
*1351 FILLER_0_965
*1352 FILLER_0_977
*1353 FILLER_0_981
*1354 FILLER_0_987
*1355 FILLER_0_995
*1356 FILLER_100_1005
*1357 FILLER_100_1017
*1358 FILLER_100_1029
*1359 FILLER_100_1035
*1360 FILLER_100_1037
*1361 FILLER_100_1049
*1362 FILLER_100_1061
*1363 FILLER_100_1073
*1364 FILLER_100_1085
*1365 FILLER_100_109
*1366 FILLER_100_1091
*1367 FILLER_100_1093
*1368 FILLER_100_1105
*1369 FILLER_100_1117
*1370 FILLER_100_1129
*1371 FILLER_100_1141
*1372 FILLER_100_1147
*1373 FILLER_100_1149
*1374 FILLER_100_1161
*1375 FILLER_100_1173
*1376 FILLER_100_1185
*1377 FILLER_100_1197
*1378 FILLER_100_1203
*1379 FILLER_100_1205
*1380 FILLER_100_121
*1381 FILLER_100_1217
*1382 FILLER_100_1229
*1383 FILLER_100_1241
*1384 FILLER_100_1253
*1385 FILLER_100_1259
*1386 FILLER_100_1261
*1387 FILLER_100_1273
*1388 FILLER_100_1285
*1389 FILLER_100_1297
*1390 FILLER_100_1309
*1391 FILLER_100_1315
*1392 FILLER_100_1317
*1393 FILLER_100_1329
*1394 FILLER_100_133
*1395 FILLER_100_1341
*1396 FILLER_100_1353
*1397 FILLER_100_1365
*1398 FILLER_100_1371
*1399 FILLER_100_1373
*1400 FILLER_100_1385
*1401 FILLER_100_139
*1402 FILLER_100_1397
*1403 FILLER_100_1409
*1404 FILLER_100_141
*1405 FILLER_100_1421
*1406 FILLER_100_1427
*1407 FILLER_100_1429
*1408 FILLER_100_1441
*1409 FILLER_100_1453
*1410 FILLER_100_1465
*1411 FILLER_100_1477
*1412 FILLER_100_1483
*1413 FILLER_100_1485
*1414 FILLER_100_1497
*1415 FILLER_100_15
*1416 FILLER_100_1509
*1417 FILLER_100_1521
*1418 FILLER_100_153
*1419 FILLER_100_1533
*1420 FILLER_100_1539
*1421 FILLER_100_1541
*1422 FILLER_100_1553
*1423 FILLER_100_1565
*1424 FILLER_100_1577
*1425 FILLER_100_1589
*1426 FILLER_100_1595
*1427 FILLER_100_1597
*1428 FILLER_100_165
*1429 FILLER_100_177
*1430 FILLER_100_189
*1431 FILLER_100_195
*1432 FILLER_100_197
*1433 FILLER_100_209
*1434 FILLER_100_221
*1435 FILLER_100_233
*1436 FILLER_100_245
*1437 FILLER_100_251
*1438 FILLER_100_253
*1439 FILLER_100_265
*1440 FILLER_100_27
*1441 FILLER_100_277
*1442 FILLER_100_289
*1443 FILLER_100_29
*1444 FILLER_100_3
*1445 FILLER_100_301
*1446 FILLER_100_307
*1447 FILLER_100_309
*1448 FILLER_100_321
*1449 FILLER_100_333
*1450 FILLER_100_345
*1451 FILLER_100_357
*1452 FILLER_100_363
*1453 FILLER_100_365
*1454 FILLER_100_377
*1455 FILLER_100_389
*1456 FILLER_100_401
*1457 FILLER_100_41
*1458 FILLER_100_413
*1459 FILLER_100_419
*1460 FILLER_100_421
*1461 FILLER_100_433
*1462 FILLER_100_445
*1463 FILLER_100_457
*1464 FILLER_100_469
*1465 FILLER_100_475
*1466 FILLER_100_477
*1467 FILLER_100_489
*1468 FILLER_100_501
*1469 FILLER_100_513
*1470 FILLER_100_525
*1471 FILLER_100_53
*1472 FILLER_100_531
*1473 FILLER_100_533
*1474 FILLER_100_545
*1475 FILLER_100_557
*1476 FILLER_100_569
*1477 FILLER_100_581
*1478 FILLER_100_587
*1479 FILLER_100_589
*1480 FILLER_100_601
*1481 FILLER_100_613
*1482 FILLER_100_625
*1483 FILLER_100_637
*1484 FILLER_100_643
*1485 FILLER_100_645
*1486 FILLER_100_65
*1487 FILLER_100_657
*1488 FILLER_100_669
*1489 FILLER_100_681
*1490 FILLER_100_693
*1491 FILLER_100_699
*1492 FILLER_100_701
*1493 FILLER_100_713
*1494 FILLER_100_725
*1495 FILLER_100_737
*1496 FILLER_100_749
*1497 FILLER_100_755
*1498 FILLER_100_757
*1499 FILLER_100_769
*1500 FILLER_100_77
*1501 FILLER_100_781
*1502 FILLER_100_793
*1503 FILLER_100_805
*1504 FILLER_100_811
*1505 FILLER_100_813
*1506 FILLER_100_825
*1507 FILLER_100_83
*1508 FILLER_100_837
*1509 FILLER_100_849
*1510 FILLER_100_85
*1511 FILLER_100_861
*1512 FILLER_100_867
*1513 FILLER_100_869
*1514 FILLER_100_881
*1515 FILLER_100_893
*1516 FILLER_100_905
*1517 FILLER_100_917
*1518 FILLER_100_923
*1519 FILLER_100_925
*1520 FILLER_100_937
*1521 FILLER_100_949
*1522 FILLER_100_961
*1523 FILLER_100_97
*1524 FILLER_100_973
*1525 FILLER_100_979
*1526 FILLER_100_981
*1527 FILLER_100_993
*1528 FILLER_101_1001
*1529 FILLER_101_1007
*1530 FILLER_101_1009
*1531 FILLER_101_1021
*1532 FILLER_101_1033
*1533 FILLER_101_1045
*1534 FILLER_101_105
*1535 FILLER_101_1057
*1536 FILLER_101_1063
*1537 FILLER_101_1065
*1538 FILLER_101_1077
*1539 FILLER_101_1089
*1540 FILLER_101_1101
*1541 FILLER_101_111
*1542 FILLER_101_1113
*1543 FILLER_101_1119
*1544 FILLER_101_1121
*1545 FILLER_101_113
*1546 FILLER_101_1133
*1547 FILLER_101_1145
*1548 FILLER_101_1157
*1549 FILLER_101_1169
*1550 FILLER_101_1175
*1551 FILLER_101_1177
*1552 FILLER_101_1189
*1553 FILLER_101_1201
*1554 FILLER_101_1213
*1555 FILLER_101_1225
*1556 FILLER_101_1231
*1557 FILLER_101_1233
*1558 FILLER_101_1245
*1559 FILLER_101_125
*1560 FILLER_101_1257
*1561 FILLER_101_1269
*1562 FILLER_101_1281
*1563 FILLER_101_1287
*1564 FILLER_101_1289
*1565 FILLER_101_1301
*1566 FILLER_101_1313
*1567 FILLER_101_1325
*1568 FILLER_101_1337
*1569 FILLER_101_1343
*1570 FILLER_101_1345
*1571 FILLER_101_1357
*1572 FILLER_101_1369
*1573 FILLER_101_137
*1574 FILLER_101_1381
*1575 FILLER_101_1393
*1576 FILLER_101_1399
*1577 FILLER_101_1401
*1578 FILLER_101_1413
*1579 FILLER_101_1425
*1580 FILLER_101_1437
*1581 FILLER_101_1449
*1582 FILLER_101_1455
*1583 FILLER_101_1457
*1584 FILLER_101_1469
*1585 FILLER_101_1481
*1586 FILLER_101_149
*1587 FILLER_101_1493
*1588 FILLER_101_15
*1589 FILLER_101_1505
*1590 FILLER_101_1511
*1591 FILLER_101_1513
*1592 FILLER_101_1525
*1593 FILLER_101_1537
*1594 FILLER_101_1549
*1595 FILLER_101_1561
*1596 FILLER_101_1567
*1597 FILLER_101_1569
*1598 FILLER_101_1581
*1599 FILLER_101_1593