*SPEF "ieee 1481-1999"
*DESIGN "wb_memory"
*DATE "11:11:11 Fri 11 11, 1111"
*VENDOR "OpenRCX"
*PROGRAM "Parallel Extraction"
*VERSION "1.0"
*DESIGN_FLOW "NAME_SCOPE LOCAL" "PIN_CAP NONE"
*DIVIDER /
*DELIMITER :
*BUS_DELIMITER []
*T_UNIT 1 NS
*C_UNIT 1 PF
*R_UNIT 1 OHM
*L_UNIT 1 HENRY

*NAME_MAP
*1 addr_mem0[0]
*2 addr_mem0[1]
*3 addr_mem0[2]
*4 addr_mem0[3]
*5 addr_mem0[4]
*6 addr_mem0[5]
*7 addr_mem0[6]
*8 addr_mem0[7]
*9 addr_mem0[8]
*10 addr_mem1[0]
*11 addr_mem1[1]
*12 addr_mem1[2]
*13 addr_mem1[3]
*14 addr_mem1[4]
*15 addr_mem1[5]
*16 addr_mem1[6]
*17 addr_mem1[7]
*18 addr_mem1[8]
*19 net241
*20 net242
*21 din_mem0[0]
*22 din_mem0[10]
*23 din_mem0[11]
*24 din_mem0[12]
*25 din_mem0[13]
*26 din_mem0[14]
*27 din_mem0[15]
*28 din_mem0[16]
*29 din_mem0[17]
*30 din_mem0[18]
*31 din_mem0[19]
*32 din_mem0[1]
*33 din_mem0[20]
*34 din_mem0[21]
*35 din_mem0[22]
*36 din_mem0[23]
*37 din_mem0[24]
*38 din_mem0[25]
*39 din_mem0[26]
*40 din_mem0[27]
*41 din_mem0[28]
*42 din_mem0[29]
*43 din_mem0[2]
*44 din_mem0[30]
*45 din_mem0[31]
*46 din_mem0[3]
*47 din_mem0[4]
*48 din_mem0[5]
*49 din_mem0[6]
*50 din_mem0[7]
*51 din_mem0[8]
*52 din_mem0[9]
*53 din_mem1[0]
*54 din_mem1[10]
*55 din_mem1[11]
*56 din_mem1[12]
*57 din_mem1[13]
*58 din_mem1[14]
*59 din_mem1[15]
*60 din_mem1[16]
*61 din_mem1[17]
*62 din_mem1[18]
*63 din_mem1[19]
*64 din_mem1[1]
*65 din_mem1[20]
*66 din_mem1[21]
*67 din_mem1[22]
*68 din_mem1[23]
*69 din_mem1[24]
*70 din_mem1[25]
*71 din_mem1[26]
*72 din_mem1[27]
*73 din_mem1[28]
*74 din_mem1[29]
*75 din_mem1[2]
*76 din_mem1[30]
*77 din_mem1[31]
*78 din_mem1[3]
*79 din_mem1[4]
*80 din_mem1[5]
*81 din_mem1[6]
*82 din_mem1[7]
*83 din_mem1[8]
*84 din_mem1[9]
*85 dout_mem0[0]
*86 dout_mem0[10]
*87 dout_mem0[11]
*88 dout_mem0[12]
*89 dout_mem0[13]
*90 dout_mem0[14]
*91 dout_mem0[15]
*92 dout_mem0[16]
*93 dout_mem0[17]
*94 dout_mem0[18]
*95 dout_mem0[19]
*96 dout_mem0[1]
*97 dout_mem0[20]
*98 dout_mem0[21]
*99 dout_mem0[22]
*100 dout_mem0[23]
*101 dout_mem0[24]
*102 dout_mem0[25]
*103 dout_mem0[26]
*104 dout_mem0[27]
*105 dout_mem0[28]
*106 dout_mem0[29]
*107 dout_mem0[2]
*108 dout_mem0[30]
*109 dout_mem0[31]
*110 dout_mem0[3]
*111 dout_mem0[4]
*112 dout_mem0[5]
*113 dout_mem0[6]
*114 dout_mem0[7]
*115 dout_mem0[8]
*116 dout_mem0[9]
*117 dout_mem1[0]
*118 dout_mem1[10]
*119 dout_mem1[11]
*120 dout_mem1[12]
*121 dout_mem1[13]
*122 dout_mem1[14]
*123 dout_mem1[15]
*124 dout_mem1[16]
*125 dout_mem1[17]
*126 dout_mem1[18]
*127 dout_mem1[19]
*128 dout_mem1[1]
*129 dout_mem1[20]
*130 dout_mem1[21]
*131 dout_mem1[22]
*132 dout_mem1[23]
*133 dout_mem1[24]
*134 dout_mem1[25]
*135 dout_mem1[26]
*136 dout_mem1[27]
*137 dout_mem1[28]
*138 dout_mem1[29]
*139 dout_mem1[2]
*140 dout_mem1[30]
*141 dout_mem1[31]
*142 dout_mem1[3]
*143 dout_mem1[4]
*144 dout_mem1[5]
*145 dout_mem1[6]
*146 dout_mem1[7]
*147 dout_mem1[8]
*148 dout_mem1[9]
*149 io_wbs_ack
*150 io_wbs_adr[0]
*151 io_wbs_adr[10]
*152 io_wbs_adr[11]
*153 io_wbs_adr[12]
*154 io_wbs_adr[13]
*155 io_wbs_adr[14]
*156 io_wbs_adr[15]
*157 io_wbs_adr[16]
*158 io_wbs_adr[17]
*159 io_wbs_adr[18]
*160 io_wbs_adr[19]
*161 io_wbs_adr[1]
*162 io_wbs_adr[20]
*163 io_wbs_adr[21]
*164 io_wbs_adr[22]
*165 io_wbs_adr[23]
*166 io_wbs_adr[24]
*167 io_wbs_adr[25]
*168 io_wbs_adr[26]
*169 io_wbs_adr[27]
*170 io_wbs_adr[28]
*171 io_wbs_adr[29]
*172 io_wbs_adr[2]
*173 io_wbs_adr[30]
*174 io_wbs_adr[31]
*175 io_wbs_adr[3]
*176 io_wbs_adr[4]
*177 io_wbs_adr[5]
*178 io_wbs_adr[6]
*179 io_wbs_adr[7]
*180 io_wbs_adr[8]
*181 io_wbs_adr[9]
*182 io_wbs_clk
*183 io_wbs_cyc
*184 io_wbs_datrd[0]
*185 io_wbs_datrd[10]
*186 io_wbs_datrd[11]
*187 io_wbs_datrd[12]
*188 io_wbs_datrd[13]
*189 io_wbs_datrd[14]
*190 io_wbs_datrd[15]
*191 io_wbs_datrd[16]
*192 io_wbs_datrd[17]
*193 io_wbs_datrd[18]
*194 io_wbs_datrd[19]
*195 io_wbs_datrd[1]
*196 io_wbs_datrd[20]
*197 io_wbs_datrd[21]
*198 io_wbs_datrd[22]
*199 io_wbs_datrd[23]
*200 io_wbs_datrd[24]
*201 io_wbs_datrd[25]
*202 io_wbs_datrd[26]
*203 io_wbs_datrd[27]
*204 io_wbs_datrd[28]
*205 io_wbs_datrd[29]
*206 io_wbs_datrd[2]
*207 io_wbs_datrd[30]
*208 io_wbs_datrd[31]
*209 io_wbs_datrd[3]
*210 io_wbs_datrd[4]
*211 io_wbs_datrd[5]
*212 io_wbs_datrd[6]
*213 io_wbs_datrd[7]
*214 io_wbs_datrd[8]
*215 io_wbs_datrd[9]
*216 io_wbs_datwr[0]
*217 io_wbs_datwr[10]
*218 io_wbs_datwr[11]
*219 io_wbs_datwr[12]
*220 io_wbs_datwr[13]
*221 io_wbs_datwr[14]
*222 io_wbs_datwr[15]
*223 io_wbs_datwr[16]
*224 io_wbs_datwr[17]
*225 io_wbs_datwr[18]
*226 io_wbs_datwr[19]
*227 io_wbs_datwr[1]
*228 io_wbs_datwr[20]
*229 io_wbs_datwr[21]
*230 io_wbs_datwr[22]
*231 io_wbs_datwr[23]
*232 io_wbs_datwr[24]
*233 io_wbs_datwr[25]
*234 io_wbs_datwr[26]
*235 io_wbs_datwr[27]
*236 io_wbs_datwr[28]
*237 io_wbs_datwr[29]
*238 io_wbs_datwr[2]
*239 io_wbs_datwr[30]
*240 io_wbs_datwr[31]
*241 io_wbs_datwr[3]
*242 io_wbs_datwr[4]
*243 io_wbs_datwr[5]
*244 io_wbs_datwr[6]
*245 io_wbs_datwr[7]
*246 io_wbs_datwr[8]
*247 io_wbs_datwr[9]
*248 io_wbs_rst
*249 io_wbs_sel[0]
*250 io_wbs_sel[1]
*251 io_wbs_sel[2]
*252 io_wbs_sel[3]
*253 io_wbs_stb
*254 io_wbs_we
*257 web_mem0
*258 web_mem1
*259 wmask_mem0[0]
*260 wmask_mem0[1]
*261 wmask_mem0[2]
*262 wmask_mem0[3]
*263 wmask_mem1[0]
*264 wmask_mem1[1]
*265 wmask_mem1[2]
*266 wmask_mem1[3]
*267 _000_
*268 _001_
*269 _002_
*270 _003_
*271 _004_
*272 _005_
*273 _006_
*274 _007_
*275 _008_
*276 _009_
*277 _010_
*278 _011_
*279 _012_
*280 _013_
*281 _014_
*282 _015_
*283 _016_
*284 _017_
*285 _018_
*286 _019_
*287 _020_
*288 _021_
*289 _022_
*290 _023_
*291 _024_
*292 _025_
*293 _026_
*294 _027_
*295 _028_
*296 _029_
*297 _030_
*298 _031_
*299 _032_
*300 _033_
*301 _034_
*302 _035_
*303 _036_
*304 _037_
*305 _038_
*306 _039_
*307 _040_
*308 _041_
*309 _042_
*310 _043_
*311 _044_
*312 _045_
*313 _046_
*314 _047_
*315 _048_
*316 _049_
*317 _050_
*318 _051_
*319 _052_
*320 _053_
*321 _054_
*322 _055_
*323 _056_
*324 _057_
*325 _058_
*326 _059_
*327 _060_
*328 _061_
*329 _062_
*330 _063_
*331 _064_
*332 _065_
*333 _066_
*334 _067_
*335 _068_
*336 _069_
*337 _070_
*338 _071_
*339 _072_
*340 _073_
*341 _074_
*342 _075_
*343 _076_
*344 _077_
*345 _078_
*346 _079_
*347 _080_
*348 _081_
*349 _082_
*350 _083_
*351 _084_
*352 _085_
*353 _086_
*354 _087_
*355 _088_
*356 _089_
*357 _090_
*358 _091_
*359 _092_
*360 _093_
*361 _094_
*362 _095_
*363 _096_
*364 _097_
*365 _098_
*366 _099_
*367 _100_
*368 _101_
*369 _102_
*370 _103_
*371 _104_
*372 _105_
*373 _106_
*374 _107_
*375 _108_
*376 _109_
*377 _110_
*378 _111_
*379 _112_
*380 _113_
*381 _114_
*382 _115_
*383 _116_
*384 _117_
*385 _118_
*386 _119_
*387 _120_
*388 _121_
*389 _122_
*390 _123_
*391 _124_
*392 _125_
*393 _126_
*394 _127_
*395 _128_
*396 _129_
*397 _130_
*398 _131_
*399 _132_
*400 _133_
*401 _134_
*402 _135_
*403 _136_
*404 _137_
*405 _138_
*406 _139_
*407 _140_
*408 _141_
*409 _142_
*410 _143_
*411 _144_
*412 _145_
*413 _146_
*414 _147_
*415 _148_
*416 _149_
*417 _150_
*418 _151_
*419 _152_
*420 _153_
*421 _154_
*422 _155_
*423 _156_
*424 _157_
*425 _158_
*426 clknet_0_io_wbs_clk
*427 clknet_2_0__leaf_io_wbs_clk
*428 clknet_2_1__leaf_io_wbs_clk
*429 clknet_2_2__leaf_io_wbs_clk
*430 clknet_2_3__leaf_io_wbs_clk
*431 net1
*432 net10
*433 net100
*434 net101
*435 net102
*436 net103
*437 net104
*438 net105
*439 net106
*440 net107
*441 net108
*442 net109
*443 net11
*444 net110
*445 net111
*446 net112
*447 net113
*448 net114
*449 net115
*450 net116
*451 net117
*452 net118
*453 net119
*454 net12
*455 net120
*456 net121
*457 net122
*458 net123
*459 net124
*460 net125
*461 net126
*462 net127
*463 net128
*464 net129
*465 net13
*466 net130
*467 net131
*468 net132
*469 net133
*470 net134
*471 net135
*472 net136
*473 net137
*474 net138
*475 net139
*476 net14
*477 net140
*478 net141
*479 net142
*480 net143
*481 net144
*482 net145
*483 net146
*484 net147
*485 net148
*486 net149
*487 net15
*488 net150
*489 net151
*490 net152
*491 net153
*492 net154
*493 net155
*494 net156
*495 net157
*496 net158
*497 net159
*498 net16
*499 net160
*500 net161
*501 net162
*502 net163
*503 net164
*504 net165
*505 net166
*506 net167
*507 net168
*508 net169
*509 net17
*510 net170
*511 net171
*512 net172
*513 net173
*514 net174
*515 net175
*516 net176
*517 net177
*518 net178
*519 net179
*520 net18
*521 net180
*522 net181
*523 net182
*524 net183
*525 net184
*526 net185
*527 net186
*528 net187
*529 net188
*530 net189
*531 net19
*532 net190
*533 net191
*534 net192
*535 net193
*536 net194
*537 net195
*538 net196
*539 net197
*540 net198
*541 net199
*542 net2
*543 net20
*544 net200
*545 net201
*546 net202
*547 net203
*548 net204
*549 net205
*550 net206
*551 net207
*552 net208
*553 net209
*554 net21
*555 net210
*556 net211
*557 net212
*558 net213
*559 net214
*560 net215
*561 net216
*562 net217
*563 net218
*564 net219
*565 net22
*566 net220
*567 net221
*568 net222
*569 net223
*570 net224
*571 net225
*572 net226
*573 net227
*574 net228
*575 net229
*576 net23
*577 net230
*578 net231
*579 net232
*580 net233
*581 net234
*582 net235
*583 net236
*584 net237
*585 net238
*586 net239
*587 net24
*588 net240
*589 net25
*590 net26
*591 net27
*592 net28
*593 net29
*594 net3
*595 net30
*596 net31
*597 net32
*598 net33
*599 net34
*600 net35
*601 net36
*602 net37
*603 net38
*604 net39
*605 net4
*606 net40
*607 net41
*608 net42
*609 net43
*610 net44
*611 net45
*612 net46
*613 net47
*614 net48
*615 net49
*616 net5
*617 net50
*618 net51
*619 net52
*620 net53
*621 net54
*622 net55
*623 net56
*624 net57
*625 net58
*626 net59
*627 net6
*628 net60
*629 net61
*630 net62
*631 net63
*632 net64
*633 net65
*634 net66
*635 net67
*636 net68
*637 net69
*638 net7
*639 net70
*640 net71
*641 net72
*642 net73
*643 net74
*644 net75
*645 net76
*646 net77
*647 net78
*648 net79
*649 net8
*650 net80
*651 net81
*652 net82
*653 net83
*654 net84
*655 net85
*656 net86
*657 net87
*658 net88
*659 net89
*660 net9
*661 net90
*662 net91
*663 net92
*664 net93
*665 net94
*666 net95
*667 net96
*668 net97
*669 net98
*670 net99
*671 operation
*672 web_mem
*673 ANTENNA__159__A
*674 ANTENNA__161__A0
*675 ANTENNA__161__A1
*676 ANTENNA__161__S
*677 ANTENNA__162__A
*678 ANTENNA__163__A
*679 ANTENNA__164__A0
*680 ANTENNA__164__A1
*681 ANTENNA__166__A0
*682 ANTENNA__166__A1
*683 ANTENNA__166__S
*684 ANTENNA__167__A0
*685 ANTENNA__167__A1
*686 ANTENNA__169__A0
*687 ANTENNA__169__A1
*688 ANTENNA__169__S
*689 ANTENNA__170__A0
*690 ANTENNA__170__A1
*691 ANTENNA__172__A
*692 ANTENNA__173__A
*693 ANTENNA__174__A0
*694 ANTENNA__174__A1
*695 ANTENNA__174__S
*696 ANTENNA__175__A0
*697 ANTENNA__175__A1
*698 ANTENNA__177__A0
*699 ANTENNA__177__A1
*700 ANTENNA__177__S
*701 ANTENNA__178__A0
*702 ANTENNA__178__A1
*703 ANTENNA__180__A0
*704 ANTENNA__180__A1
*705 ANTENNA__180__S
*706 ANTENNA__181__A
*707 ANTENNA__182__A0
*708 ANTENNA__182__A1
*709 ANTENNA__184__A0
*710 ANTENNA__184__A1
*711 ANTENNA__184__S
*712 ANTENNA__185__A0
*713 ANTENNA__185__A1
*714 ANTENNA__187__A0
*715 ANTENNA__187__A1
*716 ANTENNA__187__S
*717 ANTENNA__188__A0
*718 ANTENNA__188__A1
*719 ANTENNA__191__A0
*720 ANTENNA__191__A1
*721 ANTENNA__191__S
*722 ANTENNA__192__A0
*723 ANTENNA__192__A1
*724 ANTENNA__194__A0
*725 ANTENNA__194__A1
*726 ANTENNA__194__S
*727 ANTENNA__195__A0
*728 ANTENNA__195__A1
*729 ANTENNA__197__A0
*730 ANTENNA__197__A1
*731 ANTENNA__197__S
*732 ANTENNA__198__A
*733 ANTENNA__199__A0
*734 ANTENNA__199__A1
*735 ANTENNA__201__A0
*736 ANTENNA__201__A1
*737 ANTENNA__201__S
*738 ANTENNA__202__A0
*739 ANTENNA__202__A1
*740 ANTENNA__204__A0
*741 ANTENNA__204__A1
*742 ANTENNA__204__S
*743 ANTENNA__205__A1
*744 ANTENNA__208__A0
*745 ANTENNA__208__A1
*746 ANTENNA__209__A0
*747 ANTENNA__209__A1
*748 ANTENNA__211__A0
*749 ANTENNA__211__A1
*750 ANTENNA__212__A1
*751 ANTENNA__214__A0
*752 ANTENNA__214__A1
*753 ANTENNA__215__A
*754 ANTENNA__216__A1
*755 ANTENNA__216__S
*756 ANTENNA__218__A0
*757 ANTENNA__218__A1
*758 ANTENNA__219__A1
*759 ANTENNA__219__S
*760 ANTENNA__221__A0
*761 ANTENNA__221__A1
*762 ANTENNA__222__A1
*763 ANTENNA__222__S
*764 ANTENNA__225__A0
*765 ANTENNA__225__A1
*766 ANTENNA__226__A1
*767 ANTENNA__226__S
*768 ANTENNA__228__A0
*769 ANTENNA__228__A1
*770 ANTENNA__229__A1
*771 ANTENNA__229__S
*772 ANTENNA__231__A1
*773 ANTENNA__232__A
*774 ANTENNA__233__A1
*775 ANTENNA__235__A0
*776 ANTENNA__235__A1
*777 ANTENNA__236__A1
*778 ANTENNA__238__A0
*779 ANTENNA__238__A1
*780 ANTENNA__239__A1
*781 ANTENNA__242__A1
*782 ANTENNA__242__S
*783 ANTENNA__243__A1
*784 ANTENNA__245__A1
*785 ANTENNA__245__S
*786 ANTENNA__246__A1
*787 ANTENNA__248__A1
*788 ANTENNA__248__S
*789 ANTENNA__249__A
*790 ANTENNA__250__A1
*791 ANTENNA__252__A0
*792 ANTENNA__252__A1
*793 ANTENNA__252__S
*794 ANTENNA__253__A1
*795 ANTENNA__255__A1
*796 ANTENNA__255__S
*797 ANTENNA__256__A1
*798 ANTENNA__258__A1
*799 ANTENNA__258__S
*800 ANTENNA__259__A1
*801 ANTENNA__261__A1
*802 ANTENNA__261__S
*803 ANTENNA__262__A1
*804 ANTENNA__264__A1
*805 ANTENNA__264__S
*806 ANTENNA__265__A1
*807 ANTENNA__265__S
*808 ANTENNA__267__A1
*809 ANTENNA__267__S
*810 ANTENNA__268__A1
*811 ANTENNA__268__S
*812 ANTENNA__273__A
*813 ANTENNA__273__B_N
*814 ANTENNA__275__A
*815 ANTENNA__275__B
*816 ANTENNA__277__A
*817 ANTENNA__278__A
*818 ANTENNA__279__A
*819 ANTENNA__280__A
*820 ANTENNA__281__A
*821 ANTENNA__282__A
*822 ANTENNA__283__A
*823 ANTENNA__284__A
*824 ANTENNA__290__A
*825 ANTENNA__296__A
*826 ANTENNA__302__A
*827 ANTENNA__308__A
*828 ANTENNA__314__A
*829 ANTENNA__315__A
*830 ANTENNA__316__A
*831 ANTENNA__317__A
*832 ANTENNA__318__A
*833 ANTENNA__319__A
*834 ANTENNA__320__CLK
*835 ANTENNA__321__CLK
*836 ANTENNA__322__CLK
*837 ANTENNA__323__CLK
*838 ANTENNA__324__CLK
*839 ANTENNA__325__CLK
*840 ANTENNA__326__CLK
*841 ANTENNA__327__CLK
*842 ANTENNA__328__CLK
*843 ANTENNA__329__CLK
*844 ANTENNA__330__CLK
*845 ANTENNA__331__CLK
*846 ANTENNA__332__CLK
*847 ANTENNA__333__CLK
*848 ANTENNA__334__CLK
*849 ANTENNA__335__CLK
*850 ANTENNA__336__CLK
*851 ANTENNA__337__CLK
*852 ANTENNA__338__CLK
*853 ANTENNA__339__CLK
*854 ANTENNA__340__CLK
*855 ANTENNA__341__CLK
*856 ANTENNA__342__CLK
*857 ANTENNA__343__CLK
*858 ANTENNA__344__CLK
*859 ANTENNA__345__CLK
*860 ANTENNA__346__CLK
*861 ANTENNA__347__CLK
*862 ANTENNA__348__CLK
*863 ANTENNA__349__CLK
*864 ANTENNA__350__CLK
*865 ANTENNA__350__D
*866 ANTENNA__351__CLK
*867 ANTENNA__352__CLK
*868 ANTENNA__353__CLK
*869 ANTENNA__354__CLK
*870 ANTENNA__357__A
*871 ANTENNA__358__A
*872 ANTENNA__359__A
*873 ANTENNA__360__A
*874 ANTENNA__361__A
*875 ANTENNA__362__A
*876 ANTENNA__363__A
*877 ANTENNA__364__A
*878 ANTENNA__365__A
*879 ANTENNA__366__A
*880 ANTENNA__367__A
*881 ANTENNA__368__A
*882 ANTENNA__369__A
*883 ANTENNA__370__A
*884 ANTENNA__371__A
*885 ANTENNA__372__A
*886 ANTENNA__373__A
*887 ANTENNA__374__A
*888 ANTENNA__375__A
*889 ANTENNA__376__A
*890 ANTENNA__377__A
*891 ANTENNA__378__A
*892 ANTENNA__379__A
*893 ANTENNA__380__A
*894 ANTENNA__381__A
*895 ANTENNA__382__A
*896 ANTENNA__383__A
*897 ANTENNA__384__A
*898 ANTENNA__385__A
*899 ANTENNA__386__A
*900 ANTENNA__387__A
*901 ANTENNA__388__A
*902 ANTENNA__389__A
*903 ANTENNA__390__A
*904 ANTENNA__391__A
*905 ANTENNA__392__A
*906 ANTENNA__393__A
*907 ANTENNA__394__A
*908 ANTENNA__395__A
*909 ANTENNA__396__A
*910 ANTENNA__397__A
*911 ANTENNA__398__A
*912 ANTENNA__399__A
*913 ANTENNA__400__A
*914 ANTENNA__401__A
*915 ANTENNA__402__A
*916 ANTENNA__403__A
*917 ANTENNA__404__A
*918 ANTENNA__405__A
*919 ANTENNA__406__A
*920 ANTENNA__407__A
*921 ANTENNA__408__A
*922 ANTENNA__409__A
*923 ANTENNA__410__A
*924 ANTENNA__411__A
*925 ANTENNA__412__A
*926 ANTENNA__413__A
*927 ANTENNA__414__A
*928 ANTENNA__415__A
*929 ANTENNA__416__A
*930 ANTENNA__417__A
*931 ANTENNA__418__A
*932 ANTENNA__419__A
*933 ANTENNA__420__A
*934 ANTENNA__421__A
*935 ANTENNA__422__A
*936 ANTENNA__423__A
*937 ANTENNA__424__A
*938 ANTENNA__425__A
*939 ANTENNA__426__A
*940 ANTENNA__427__A
*941 ANTENNA__428__A
*942 ANTENNA__429__A
*943 ANTENNA__430__A
*944 ANTENNA__431__A
*945 ANTENNA__432__A
*946 ANTENNA__433__A
*947 ANTENNA__434__A
*948 ANTENNA__435__A
*949 ANTENNA__436__A
*950 ANTENNA__437__A
*951 ANTENNA__438__A
*952 ANTENNA__439__A
*953 ANTENNA__440__A
*954 ANTENNA__441__A
*955 ANTENNA__442__A
*956 ANTENNA__443__A
*957 ANTENNA__444__A
*958 ANTENNA__445__A
*959 ANTENNA__446__A
*960 ANTENNA_clkbuf_0_io_wbs_clk_A
*961 ANTENNA_input100_A
*962 ANTENNA_input101_A
*963 ANTENNA_input102_A
*964 ANTENNA_input103_A
*965 ANTENNA_input104_A
*966 ANTENNA_input105_A
*967 ANTENNA_input106_A
*968 ANTENNA_input107_A
*969 ANTENNA_input108_A
*970 ANTENNA_input109_A
*971 ANTENNA_input10_A
*972 ANTENNA_input110_A
*973 ANTENNA_input111_A
*974 ANTENNA_input112_A
*975 ANTENNA_input113_A
*976 ANTENNA_input114_A
*977 ANTENNA_input11_A
*978 ANTENNA_input12_A
*979 ANTENNA_input13_A
*980 ANTENNA_input14_A
*981 ANTENNA_input15_A
*982 ANTENNA_input16_A
*983 ANTENNA_input17_A
*984 ANTENNA_input18_A
*985 ANTENNA_input19_A
*986 ANTENNA_input1_A
*987 ANTENNA_input20_A
*988 ANTENNA_input21_A
*989 ANTENNA_input22_A
*990 ANTENNA_input23_A
*991 ANTENNA_input24_A
*992 ANTENNA_input25_A
*993 ANTENNA_input26_A
*994 ANTENNA_input27_A
*995 ANTENNA_input28_A
*996 ANTENNA_input29_A
*997 ANTENNA_input2_A
*998 ANTENNA_input30_A
*999 ANTENNA_input31_A
*1000 ANTENNA_input32_A
*1001 ANTENNA_input33_A
*1002 ANTENNA_input34_A
*1003 ANTENNA_input35_A
*1004 ANTENNA_input36_A
*1005 ANTENNA_input37_A
*1006 ANTENNA_input38_A
*1007 ANTENNA_input39_A
*1008 ANTENNA_input3_A
*1009 ANTENNA_input40_A
*1010 ANTENNA_input41_A
*1011 ANTENNA_input42_A
*1012 ANTENNA_input43_A
*1013 ANTENNA_input44_A
*1014 ANTENNA_input45_A
*1015 ANTENNA_input46_A
*1016 ANTENNA_input47_A
*1017 ANTENNA_input48_A
*1018 ANTENNA_input49_A
*1019 ANTENNA_input4_A
*1020 ANTENNA_input50_A
*1021 ANTENNA_input51_A
*1022 ANTENNA_input52_A
*1023 ANTENNA_input53_A
*1024 ANTENNA_input54_A
*1025 ANTENNA_input55_A
*1026 ANTENNA_input56_A
*1027 ANTENNA_input57_A
*1028 ANTENNA_input58_A
*1029 ANTENNA_input59_A
*1030 ANTENNA_input5_A
*1031 ANTENNA_input60_A
*1032 ANTENNA_input61_A
*1033 ANTENNA_input62_A
*1034 ANTENNA_input63_A
*1035 ANTENNA_input64_A
*1036 ANTENNA_input65_A
*1037 ANTENNA_input66_A
*1038 ANTENNA_input67_A
*1039 ANTENNA_input68_A
*1040 ANTENNA_input69_A
*1041 ANTENNA_input6_A
*1042 ANTENNA_input70_A
*1043 ANTENNA_input71_A
*1044 ANTENNA_input72_A
*1045 ANTENNA_input73_A
*1046 ANTENNA_input74_A
*1047 ANTENNA_input75_A
*1048 ANTENNA_input76_A
*1049 ANTENNA_input77_A
*1050 ANTENNA_input78_A
*1051 ANTENNA_input79_A
*1052 ANTENNA_input7_A
*1053 ANTENNA_input80_A
*1054 ANTENNA_input81_A
*1055 ANTENNA_input82_A
*1056 ANTENNA_input83_A
*1057 ANTENNA_input84_A
*1058 ANTENNA_input85_A
*1059 ANTENNA_input86_A
*1060 ANTENNA_input87_A
*1061 ANTENNA_input88_A
*1062 ANTENNA_input89_A
*1063 ANTENNA_input8_A
*1064 ANTENNA_input90_A
*1065 ANTENNA_input91_A
*1066 ANTENNA_input92_A
*1067 ANTENNA_input93_A
*1068 ANTENNA_input94_A
*1069 ANTENNA_input95_A
*1070 ANTENNA_input96_A
*1071 ANTENNA_input97_A
*1072 ANTENNA_input98_A
*1073 ANTENNA_input99_A
*1074 ANTENNA_input9_A
*1075 ANTENNA_output123_A
*1076 ANTENNA_output125_A
*1077 ANTENNA_output126_A
*1078 ANTENNA_output127_A
*1079 ANTENNA_output128_A
*1080 ANTENNA_output129_A
*1081 ANTENNA_output130_A
*1082 ANTENNA_output131_A
*1083 ANTENNA_output132_A
*1084 ANTENNA_output135_A
*1085 ANTENNA_output136_A
*1086 ANTENNA_output137_A
*1087 ANTENNA_output138_A
*1088 ANTENNA_output139_A
*1089 ANTENNA_output140_A
*1090 ANTENNA_output141_A
*1091 ANTENNA_output142_A
*1092 ANTENNA_output143_A
*1093 ANTENNA_output145_A
*1094 ANTENNA_output146_A
*1095 ANTENNA_output147_A
*1096 ANTENNA_output148_A
*1097 ANTENNA_output149_A
*1098 ANTENNA_output150_A
*1099 ANTENNA_output151_A
*1100 ANTENNA_output152_A
*1101 ANTENNA_output153_A
*1102 ANTENNA_output154_A
*1103 ANTENNA_output156_A
*1104 ANTENNA_output157_A
*1105 ANTENNA_output165_A
*1106 ANTENNA_output167_A
*1107 ANTENNA_output176_A
*1108 ANTENNA_output187_A
*1109 ANTENNA_output190_A
*1110 ANTENNA_output191_A
*1111 ANTENNA_output192_A
*1112 ANTENNA_output193_A
*1113 ANTENNA_output194_A
*1114 ANTENNA_output195_A
*1115 ANTENNA_output196_A
*1116 ANTENNA_output207_A
*1117 ANTENNA_output210_A
*1118 ANTENNA_output211_A
*1119 ANTENNA_output212_A
*1120 ANTENNA_output213_A
*1121 ANTENNA_output214_A
*1122 ANTENNA_output215_A
*1123 ANTENNA_output216_A
*1124 ANTENNA_output217_A
*1125 ANTENNA_output218_A
*1126 ANTENNA_output219_A
*1127 ANTENNA_output221_A
*1128 ANTENNA_output222_A
*1129 ANTENNA_output230_A
*1130 ANTENNA_output236_A
*1131 ANTENNA_output237_A
*1132 ANTENNA_output238_A
*1133 ANTENNA_output239_A
*1134 FILLER_0_1004
*1135 FILLER_0_1009
*1136 FILLER_0_1019
*1137 FILLER_0_1027
*1138 FILLER_0_1032
*1139 FILLER_0_1037
*1140 FILLER_0_1060
*1141 FILLER_0_1086
*1142 FILLER_0_1097
*1143 FILLER_0_11
*1144 FILLER_0_110
*1145 FILLER_0_1105
*1146 FILLER_0_1116
*1147 FILLER_0_1121
*1148 FILLER_0_1125
*1149 FILLER_0_113
*1150 FILLER_0_1130
*1151 FILLER_0_1134
*1152 FILLER_0_1144
*1153 FILLER_0_1153
*1154 FILLER_0_1159
*1155 FILLER_0_1165
*1156 FILLER_0_1169
*1157 FILLER_0_1172
*1158 FILLER_0_1181
*1159 FILLER_0_1185
*1160 FILLER_0_1190
*1161 FILLER_0_1196
*1162 FILLER_0_1205
*1163 FILLER_0_1209
*1164 FILLER_0_1212
*1165 FILLER_0_1220
*1166 FILLER_0_1233
*1167 FILLER_0_1241
*1168 FILLER_0_125
*1169 FILLER_0_1253
*1170 FILLER_0_1256
*1171 FILLER_0_1265
*1172 FILLER_0_1269
*1173 FILLER_0_1272
*1174 FILLER_0_1280
*1175 FILLER_0_1289
*1176 FILLER_0_1297
*1177 FILLER_0_1302
*1178 FILLER_0_1310
*1179 FILLER_0_1317
*1180 FILLER_0_1325
*1181 FILLER_0_133
*1182 FILLER_0_1337
*1183 FILLER_0_1343
*1184 FILLER_0_1347
*1185 FILLER_0_1355
*1186 FILLER_0_136
*1187 FILLER_0_1367
*1188 FILLER_0_1371
*1189 FILLER_0_1373
*1190 FILLER_0_1381
*1191 FILLER_0_1393
*1192 FILLER_0_1396
*1193 FILLER_0_1405
*1194 FILLER_0_141
*1195 FILLER_0_1415
*1196 FILLER_0_1427
*1197 FILLER_0_1429
*1198 FILLER_0_1437
*1199 FILLER_0_1445
*1200 FILLER_0_1453
*1201 FILLER_0_1457
*1202 FILLER_0_1465
*1203 FILLER_0_1477
*1204 FILLER_0_1483
*1205 FILLER_0_1485
*1206 FILLER_0_1490
*1207 FILLER_0_1494
*1208 FILLER_0_1497
*1209 FILLER_0_1505
*1210 FILLER_0_151
*1211 FILLER_0_1511
*1212 FILLER_0_1513
*1213 FILLER_0_1527
*1214 FILLER_0_1535
*1215 FILLER_0_1539
*1216 FILLER_0_1541
*1217 FILLER_0_1545
*1218 FILLER_0_1550
*1219 FILLER_0_1562
*1220 FILLER_0_1569
*1221 FILLER_0_1572
*1222 FILLER_0_1580
*1223 FILLER_0_159
*1224 FILLER_0_1592
*1225 FILLER_0_1599
*1226 FILLER_0_167
*1227 FILLER_0_169
*1228 FILLER_0_176
*1229 FILLER_0_180
*1230 FILLER_0_185
*1231 FILLER_0_192
*1232 FILLER_0_197
*1233 FILLER_0_205
*1234 FILLER_0_215
*1235 FILLER_0_223
*1236 FILLER_0_225
*1237 FILLER_0_232
*1238 FILLER_0_24
*1239 FILLER_0_240
*1240 FILLER_0_245
*1241 FILLER_0_251
*1242 FILLER_0_253
*1243 FILLER_0_261
*1244 FILLER_0_267
*1245 FILLER_0_275
*1246 FILLER_0_279
*1247 FILLER_0_281
*1248 FILLER_0_285
*1249 FILLER_0_29
*1250 FILLER_0_290
*1251 FILLER_0_296
*1252 FILLER_0_3
*1253 FILLER_0_304
*1254 FILLER_0_309
*1255 FILLER_0_312
*1256 FILLER_0_320
*1257 FILLER_0_328
*1258 FILLER_0_332
*1259 FILLER_0_337
*1260 FILLER_0_342
*1261 FILLER_0_350
*1262 FILLER_0_356
*1263 FILLER_0_359
*1264 FILLER_0_363
*1265 FILLER_0_369
*1266 FILLER_0_37
*1267 FILLER_0_375
*1268 FILLER_0_380
*1269 FILLER_0_388
*1270 FILLER_0_397
*1271 FILLER_0_405
*1272 FILLER_0_410
*1273 FILLER_0_416
*1274 FILLER_0_42
*1275 FILLER_0_421
*1276 FILLER_0_429
*1277 FILLER_0_435
*1278 FILLER_0_440
*1279 FILLER_0_469
*1280 FILLER_0_475
*1281 FILLER_0_477
*1282 FILLER_0_485
*1283 FILLER_0_49
*1284 FILLER_0_492
*1285 FILLER_0_500
*1286 FILLER_0_525
*1287 FILLER_0_531
*1288 FILLER_0_533
*1289 FILLER_0_55
*1290 FILLER_0_556
*1291 FILLER_0_563
*1292 FILLER_0_571
*1293 FILLER_0_584
*1294 FILLER_0_589
*1295 FILLER_0_611
*1296 FILLER_0_615
*1297 FILLER_0_617
*1298 FILLER_0_625
*1299 FILLER_0_635
*1300 FILLER_0_643
*1301 FILLER_0_645
*1302 FILLER_0_652
*1303 FILLER_0_660
*1304 FILLER_0_665
*1305 FILLER_0_671
*1306 FILLER_0_673
*1307 FILLER_0_680
*1308 FILLER_0_687
*1309 FILLER_0_695
*1310 FILLER_0_699
*1311 FILLER_0_703
*1312 FILLER_0_715
*1313 FILLER_0_719
*1314 FILLER_0_724
*1315 FILLER_0_729
*1316 FILLER_0_752
*1317 FILLER_0_760
*1318 FILLER_0_77
*1319 FILLER_0_770
*1320 FILLER_0_780
*1321 FILLER_0_785
*1322 FILLER_0_808
*1323 FILLER_0_819
*1324 FILLER_0_825
*1325 FILLER_0_83
*1326 FILLER_0_830
*1327 FILLER_0_836
*1328 FILLER_0_841
*1329 FILLER_0_846
*1330 FILLER_0_85
*1331 FILLER_0_852
*1332 FILLER_0_860
*1333 FILLER_0_869
*1334 FILLER_0_875
*1335 FILLER_0_881
*1336 FILLER_0_889
*1337 FILLER_0_892
*1338 FILLER_0_897
*1339 FILLER_0_905
*1340 FILLER_0_91
*1341 FILLER_0_912
*1342 FILLER_0_920
*1343 FILLER_0_945
*1344 FILLER_0_951
*1345 FILLER_0_957
*1346 FILLER_0_965
*1347 FILLER_0_973
*1348 FILLER_0_979
*1349 FILLER_0_98
*1350 FILLER_10_1005
*1351 FILLER_10_1017
*1352 FILLER_10_1029
*1353 FILLER_10_1035
*1354 FILLER_10_1037
*1355 FILLER_10_1049
*1356 FILLER_10_1061
*1357 FILLER_10_1073
*1358 FILLER_10_1085
*1359 FILLER_10_109
*1360 FILLER_10_1091
*1361 FILLER_10_1093
*1362 FILLER_10_1105
*1363 FILLER_10_1117
*1364 FILLER_10_1129
*1365 FILLER_10_1141
*1366 FILLER_10_1147
*1367 FILLER_10_1149
*1368 FILLER_10_1161
*1369 FILLER_10_1173
*1370 FILLER_10_1185
*1371 FILLER_10_1197
*1372 FILLER_10_1203
*1373 FILLER_10_1205
*1374 FILLER_10_121
*1375 FILLER_10_1217
*1376 FILLER_10_1229
*1377 FILLER_10_1241
*1378 FILLER_10_1253
*1379 FILLER_10_1259
*1380 FILLER_10_1261
*1381 FILLER_10_1273
*1382 FILLER_10_1285
*1383 FILLER_10_1297
*1384 FILLER_10_1309
*1385 FILLER_10_1315
*1386 FILLER_10_1317
*1387 FILLER_10_1329
*1388 FILLER_10_133
*1389 FILLER_10_1341
*1390 FILLER_10_1353
*1391 FILLER_10_1365
*1392 FILLER_10_1371
*1393 FILLER_10_1373
*1394 FILLER_10_1385
*1395 FILLER_10_139
*1396 FILLER_10_1397
*1397 FILLER_10_1409
*1398 FILLER_10_141
*1399 FILLER_10_1421
*1400 FILLER_10_1427
*1401 FILLER_10_1429
*1402 FILLER_10_1441
*1403 FILLER_10_1453
*1404 FILLER_10_1465
*1405 FILLER_10_1477
*1406 FILLER_10_1483
*1407 FILLER_10_1485
*1408 FILLER_10_1497
*1409 FILLER_10_15
*1410 FILLER_10_1509
*1411 FILLER_10_1521
*1412 FILLER_10_153
*1413 FILLER_10_1533
*1414 FILLER_10_1539
*1415 FILLER_10_1541
*1416 FILLER_10_1553
*1417 FILLER_10_1565
*1418 FILLER_10_1577
*1419 FILLER_10_1589
*1420 FILLER_10_1595
*1421 FILLER_10_1597
*1422 FILLER_10_165
*1423 FILLER_10_177
*1424 FILLER_10_189
*1425 FILLER_10_195
*1426 FILLER_10_197
*1427 FILLER_10_209
*1428 FILLER_10_221
*1429 FILLER_10_233
*1430 FILLER_10_245
*1431 FILLER_10_251
*1432 FILLER_10_253
*1433 FILLER_10_265
*1434 FILLER_10_27
*1435 FILLER_10_277
*1436 FILLER_10_289
*1437 FILLER_10_29
*1438 FILLER_10_3
*1439 FILLER_10_301
*1440 FILLER_10_307
*1441 FILLER_10_309
*1442 FILLER_10_321
*1443 FILLER_10_333
*1444 FILLER_10_345
*1445 FILLER_10_357
*1446 FILLER_10_363
*1447 FILLER_10_365
*1448 FILLER_10_377
*1449 FILLER_10_389
*1450 FILLER_10_401
*1451 FILLER_10_41
*1452 FILLER_10_413
*1453 FILLER_10_419
*1454 FILLER_10_421
*1455 FILLER_10_433
*1456 FILLER_10_445
*1457 FILLER_10_457
*1458 FILLER_10_469
*1459 FILLER_10_475
*1460 FILLER_10_477
*1461 FILLER_10_489
*1462 FILLER_10_501
*1463 FILLER_10_513
*1464 FILLER_10_525
*1465 FILLER_10_53
*1466 FILLER_10_531
*1467 FILLER_10_533
*1468 FILLER_10_545
*1469 FILLER_10_557
*1470 FILLER_10_569
*1471 FILLER_10_581
*1472 FILLER_10_587
*1473 FILLER_10_589
*1474 FILLER_10_601
*1475 FILLER_10_613
*1476 FILLER_10_625
*1477 FILLER_10_637
*1478 FILLER_10_643
*1479 FILLER_10_645
*1480 FILLER_10_65
*1481 FILLER_10_657
*1482 FILLER_10_669
*1483 FILLER_10_681
*1484 FILLER_10_693
*1485 FILLER_10_699
*1486 FILLER_10_701
*1487 FILLER_10_713
*1488 FILLER_10_725
*1489 FILLER_10_737
*1490 FILLER_10_749
*1491 FILLER_10_755
*1492 FILLER_10_757
*1493 FILLER_10_769
*1494 FILLER_10_77
*1495 FILLER_10_781
*1496 FILLER_10_793
*1497 FILLER_10_805
*1498 FILLER_10_811
*1499 FILLER_10_813
*1500 FILLER_10_825
*1501 FILLER_10_83
*1502 FILLER_10_837
*1503 FILLER_10_849
*1504 FILLER_10_85
*1505 FILLER_10_861
*1506 FILLER_10_867
*1507 FILLER_10_869
*1508 FILLER_10_881
*1509 FILLER_10_893
*1510 FILLER_10_905
*1511 FILLER_10_917
*1512 FILLER_10_923
*1513 FILLER_10_925
*1514 FILLER_10_937
*1515 FILLER_10_949
*1516 FILLER_10_961
*1517 FILLER_10_97
*1518 FILLER_10_973
*1519 FILLER_10_979
*1520 FILLER_10_981
*1521 FILLER_10_993
*1522 FILLER_11_1001
*1523 FILLER_11_1007
*1524 FILLER_11_1009
*1525 FILLER_11_1021
*1526 FILLER_11_1033
*1527 FILLER_11_1045
*1528 FILLER_11_105
*1529 FILLER_11_1057
*1530 FILLER_11_1063
*1531 FILLER_11_1065
*1532 FILLER_11_1077
*1533 FILLER_11_1089
*1534 FILLER_11_1101
*1535 FILLER_11_111
*1536 FILLER_11_1113
*1537 FILLER_11_1119
*1538 FILLER_11_1121
*1539 FILLER_11_113
*1540 FILLER_11_1133
*1541 FILLER_11_1145
*1542 FILLER_11_1157
*1543 FILLER_11_1169
*1544 FILLER_11_1175
*1545 FILLER_11_1177
*1546 FILLER_11_1189
*1547 FILLER_11_1201
*1548 FILLER_11_1213
*1549 FILLER_11_1225
*1550 FILLER_11_1231
*1551 FILLER_11_1233
*1552 FILLER_11_1245
*1553 FILLER_11_125
*1554 FILLER_11_1257
*1555 FILLER_11_1269
*1556 FILLER_11_1281
*1557 FILLER_11_1287
*1558 FILLER_11_1289
*1559 FILLER_11_1301
*1560 FILLER_11_1313
*1561 FILLER_11_1325
*1562 FILLER_11_1337
*1563 FILLER_11_1343
*1564 FILLER_11_1345
*1565 FILLER_11_1357
*1566 FILLER_11_1369
*1567 FILLER_11_137
*1568 FILLER_11_1381
*1569 FILLER_11_1393
*1570 FILLER_11_1399
*1571 FILLER_11_1401
*1572 FILLER_11_1413
*1573 FILLER_11_1425
*1574 FILLER_11_1437
*1575 FILLER_11_1449
*1576 FILLER_11_1455
*1577 FILLER_11_1457
*1578 FILLER_11_1469
*1579 FILLER_11_1481
*1580 FILLER_11_149
*1581 FILLER_11_1493
*1582 FILLER_11_15
*1583 FILLER_11_1505
*1584 FILLER_11_1511
*1585 FILLER_11_1513
*1586 FILLER_11_1525
*1587 FILLER_11_1537
*1588 FILLER_11_1549
*1589 FILLER_11_1561
*1590 FILLER_11_1567
*1591 FILLER_11_1569
*1592 FILLER_11_1581
*1593 FILLER_11_1593
*1594 FILLER_11_1601
*1595 FILLER_11_161
*1596 FILLER_11_167
*1597 FILLER_11_169
*1598 FILLER_11_181
*1599 FILLER_11_193
*1600 FILLER_11_205
*1601 FILLER_11_217
*1602 FILLER_11_223
*1603 FILLER_11_225
*1604 FILLER_11_237
*1605 FILLER_11_249
*1606 FILLER_11_261
*1607 FILLER_11_27
*1608 FILLER_11_273
*1609 FILLER_11_279
*1610 FILLER_11_281
*1611 FILLER_11_293
*1612 FILLER_11_3
*1613 FILLER_11_305
*1614 FILLER_11_317